Circuit: * D:\GoogleDrive\Projects\Falmo\electronics\555AstableFlipFlop.asc

WARNING: Less than two connections to node VCC.  This node is used by R3.
Direct Newton iteration for .op point succeeded.

Date: Fri Apr 23 16:44:43 2021
Total elapsed time: 0.128 seconds.

tnom = 27
temp = 27
method = modified trap
totiter = 9446
traniter = 9441
tranpoints = 2564
accept = 2204
rejected = 360
matrix size = 14
fillins = 0
solver = Normal
Matrix Compiler1: 402 bytes object code size  0.1/0.1/[0.1]
Matrix Compiler2: 814 bytes object code size  0.1/0.1/[0.1]

