Circuit: * AD8217 SPICE Macro-model

Fatal Error: No analysis request found.
