Circuit: * D:\GoogleDrive\Projects\Falmo\electronics\decoder.asc

Limiting rise time of source v2 to 0.01
Limiting fall time of source v2 to 0.01
Early termination of direct N-R iteration.
Direct Newton iteration failed to find .op point.  (Use ".option noopiter" to skip.)
Starting Gmin stepping
Gmin = 10
Gmin = 1.07374
Gmin = 0.115292
Gmin = 0.0123794
Gmin = 0.00132923
Gmin = 0.000142725
Gmin = 1.5325e-005
Gmin = 1.6455e-006
Gmin = 1.76685e-007
Gmin = 1.89714e-008
Gmin = 2.03704e-009
Gmin = 2.18725e-010
Gmin = 2.34854e-011
Gmin = 2.52173e-012
Gmin = 2.70769e-013
Gmin = 0
Gmin stepping succeeded in finding the operating point.


Date: Thu Aug 20 08:59:19 2020
Total elapsed time: 5.444 seconds.

tnom = 27
temp = 27
method = modified trap
totiter = 84488
traniter = 84156
tranpoints = 30564
accept = 22315
rejected = 8249
matrix size = 96
fillins = 87
solver = Normal
Thread vector: 69.8/28.3[8] 19.9/11.0[8] 8.1/5.2[8] 0.9/1.1[1]  2592/500
Matrix Compiler1: 11.14 KB object code size  5.3/2.8/[1.1]
Matrix Compiler2: 9.18 KB object code size  2.0/2.7/[1.0]

