Circuit: * D:\GoogleDrive\Projects\Falmo\electronics\decoder.asc

Early termination of direct N-R iteration.
Direct Newton iteration failed to find .op point.  (Use ".option noopiter" to skip.)
Starting Gmin stepping
Gmin = 10
Gmin = 1.07374
Gmin = 0.115292
Gmin = 0.0123794
Gmin = 0.00132923
Gmin = 0.000142725
Gmin = 1.5325e-005
Gmin = 1.6455e-006
Gmin = 1.76685e-007
Gmin = 1.89714e-008
Gmin = 2.03704e-009
Gmin = 2.18725e-010
Gmin = 2.34854e-011
Gmin = 2.52173e-012
Gmin = 2.70769e-013
Gmin = 0
Gmin stepping succeeded in finding the operating point.


Date: Fri Aug 07 14:00:02 2020
Total elapsed time: 86.487 seconds.

tnom = 27
temp = 27
method = modified trap
totiter = 1544939
traniter = 1544608
tranpoints = 531337
accept = 390423
rejected = 140914
matrix size = 77
fillins = 77
solver = Normal
Thread vector: 45.1/17.7[8] 15.5/10.4[8] 6.8/4.6[6] 0.3/3.1[1]  2592/500
Matrix Compiler1: 9.62 KB object code size  3.9/2.6/[1.2]
Matrix Compiler2: 7.55 KB object code size  1.6/2.5/[0.4]

