Circuit: * D:\GoogleDrive\Projects\Falmo\electronics\decoder.asc

Early termination of direct N-R iteration.
Direct Newton iteration failed to find .op point.  (Use ".option noopiter" to skip.)
Starting Gmin stepping
Gmin = 10
Gmin = 1.07374
Gmin = 0.115292
Gmin = 0.0123794
Gmin = 0.00132923
Gmin = 0.000142725
Gmin = 1.5325e-005
Gmin = 1.6455e-006
Gmin = 1.76685e-007
Gmin = 1.89714e-008
Gmin = 2.03704e-009
Gmin = 2.18725e-010
Gmin = 2.34854e-011
Gmin = 2.52173e-012
Gmin = 2.70769e-013
Gmin = 0
Gmin stepping succeeded in finding the operating point.


Date: Tue Apr 27 19:31:32 2021
Total elapsed time: 229.779 seconds.

tnom = 27
temp = 27
method = modified trap
totiter = 3301712
traniter = 3301381
tranpoints = 1219769
accept = 885513
rejected = 334256
matrix size = 77
fillins = 77
solver = Normal
Thread vector: 24.3/12.0[8] 9.9/4.6[8] 5.9/3.3[8] 0.4/1.2[1]  2592/500
Matrix Compiler1: 9.62 KB object code size  2.6/1.6/[0.9]
Matrix Compiler2: 7.55 KB object code size  1.3/1.5/[0.4]

