Circuit: * D:\Google Drive\Projects\Falmo\electronics\feedback.asc

WARNING: Node NC_03 is floating.
WARNING: Node NC_04 is floating.
WARNING: Node NC_05 is floating.
WARNING: Node NC_06 is floating.
WARNING: Node NC_07 is floating.
WARNING: Node NC_08 is floating.
WARNING: Node NC_09 is floating.
WARNING: Node NC_10 is floating.

WARNING: Less than two connections to node NC_02.  This node is used by S:U4:1.
WARNING: Less than two connections to node NC_03.  This node is used by A:X1:31.
WARNING: Less than two connections to node NC_04.  This node is used by A:X1:32.
WARNING: Less than two connections to node NC_05.  This node is used by A:X1:33.
WARNING: Less than two connections to node NC_06.  This node is used by A:X1:34.
WARNING: Less than two connections to node N012.  This node is used by A:X1:35.
WARNING: Less than two connections to node N014.  This node is used by A:X1:36.
WARNING: Less than two connections to node N015.  This node is used by A:X1:37.
WARNING: Less than two connections to node N008.  This node is used by A:X1:39.
WARNING: Less than two connections to node N005.  This node is used by A:X1:40.
WARNING: Less than two connections to node NC_07.  This node is used by A:X2:31.
WARNING: Less than two connections to node NC_08.  This node is used by A:X2:32.
WARNING: Less than two connections to node NC_09.  This node is used by A:X2:33.
WARNING: Less than two connections to node NC_10.  This node is used by A:X2:34.
WARNING: Less than two connections to node N013.  This node is used by A:X2:35.
WARNING: Less than two connections to node N009.  This node is used by A:X2:39.
WARNING: Less than two connections to node N006.  This node is used by A:X2:40.
WARNING: Less than two connections to node V+5.  This node is used by V5.
Instance "m:u5:39": Length shorter than recommended for a level 1 MOSFET.
Instance "m:u5:38": Length shorter than recommended for a level 1 MOSFET.
Instance "m:u5:35": Length shorter than recommended for a level 1 MOSFET.
Instance "m:u5:34": Length shorter than recommended for a level 1 MOSFET.
Instance "m:u5:36": Length shorter than recommended for a level 1 MOSFET.
Instance "m:u5:33": Length shorter than recommended for a level 1 MOSFET.
Instance "m:u5:32": Length shorter than recommended for a level 1 MOSFET.
Instance "m:u5:31": Length shorter than recommended for a level 1 MOSFET.
Instance "m:u5:30": Length shorter than recommended for a level 1 MOSFET.
Instance "m:u5:28": Length shorter than recommended for a level 1 MOSFET.
Instance "m:u5:27": Length shorter than recommended for a level 1 MOSFET.
Instance "m:u5:26": Length shorter than recommended for a level 1 MOSFET.
Instance "m:u5:25": Length shorter than recommended for a level 1 MOSFET.
Instance "m:u5:29": Length shorter than recommended for a level 1 MOSFET.
Instance "m:u5:24": Length shorter than recommended for a level 1 MOSFET.
Instance "m:u6:39": Length shorter than recommended for a level 1 MOSFET.
Instance "m:u6:38": Length shorter than recommended for a level 1 MOSFET.
Instance "m:u6:35": Length shorter than recommended for a level 1 MOSFET.
Instance "m:u6:34": Length shorter than recommended for a level 1 MOSFET.
Instance "m:u6:36": Length shorter than recommended for a level 1 MOSFET.
Instance "m:u6:33": Length shorter than recommended for a level 1 MOSFET.
Instance "m:u6:32": Length shorter than recommended for a level 1 MOSFET.
Instance "m:u6:31": Length shorter than recommended for a level 1 MOSFET.
Instance "m:u6:30": Length shorter than recommended for a level 1 MOSFET.
Instance "m:u6:28": Length shorter than recommended for a level 1 MOSFET.
Instance "m:u6:27": Length shorter than recommended for a level 1 MOSFET.
Instance "m:u6:26": Length shorter than recommended for a level 1 MOSFET.
Instance "m:u6:25": Length shorter than recommended for a level 1 MOSFET.
Instance "m:u6:29": Length shorter than recommended for a level 1 MOSFET.
Instance "m:u6:24": Length shorter than recommended for a level 1 MOSFET.
Instance "m:u16:39": Length shorter than recommended for a level 1 MOSFET.
Instance "m:u16:38": Length shorter than recommended for a level 1 MOSFET.
Instance "m:u16:35": Length shorter than recommended for a level 1 MOSFET.
Instance "m:u16:34": Length shorter than recommended for a level 1 MOSFET.
Instance "m:u16:36": Length shorter than recommended for a level 1 MOSFET.
Instance "m:u16:33": Length shorter than recommended for a level 1 MOSFET.
Instance "m:u16:32": Length shorter than recommended for a level 1 MOSFET.
Instance "m:u16:31": Length shorter than recommended for a level 1 MOSFET.
Instance "m:u16:30": Length shorter than recommended for a level 1 MOSFET.
Instance "m:u16:28": Length shorter than recommended for a level 1 MOSFET.
Instance "m:u16:27": Length shorter than recommended for a level 1 MOSFET.
Instance "m:u16:26": Length shorter than recommended for a level 1 MOSFET.
Instance "m:u16:25": Length shorter than recommended for a level 1 MOSFET.
Instance "m:u16:29": Length shorter than recommended for a level 1 MOSFET.
Instance "m:u16:24": Length shorter than recommended for a level 1 MOSFET.
Instance "m:u15:39": Length shorter than recommended for a level 1 MOSFET.
Instance "m:u15:38": Length shorter than recommended for a level 1 MOSFET.
Instance "m:u15:35": Length shorter than recommended for a level 1 MOSFET.
Instance "m:u15:34": Length shorter than recommended for a level 1 MOSFET.
Instance "m:u15:36": Length shorter than recommended for a level 1 MOSFET.
Instance "m:u15:33": Length shorter than recommended for a level 1 MOSFET.
Instance "m:u15:32": Length shorter than recommended for a level 1 MOSFET.
Instance "m:u15:31": Length shorter than recommended for a level 1 MOSFET.
Instance "m:u15:30": Length shorter than recommended for a level 1 MOSFET.
Instance "m:u15:28": Length shorter than recommended for a level 1 MOSFET.
Instance "m:u15:27": Length shorter than recommended for a level 1 MOSFET.
Instance "m:u15:26": Length shorter than recommended for a level 1 MOSFET.
Instance "m:u15:25": Length shorter than recommended for a level 1 MOSFET.
Instance "m:u15:29": Length shorter than recommended for a level 1 MOSFET.
Instance "m:u15:24": Length shorter than recommended for a level 1 MOSFET.
Instance "m:u14:39": Length shorter than recommended for a level 1 MOSFET.
Instance "m:u14:38": Length shorter than recommended for a level 1 MOSFET.
Instance "m:u14:35": Length shorter than recommended for a level 1 MOSFET.
Instance "m:u14:34": Length shorter than recommended for a level 1 MOSFET.
Instance "m:u14:36": Length shorter than recommended for a level 1 MOSFET.
Instance "m:u14:33": Length shorter than recommended for a level 1 MOSFET.
Instance "m:u14:32": Length shorter than recommended for a level 1 MOSFET.
Instance "m:u14:31": Length shorter than recommended for a level 1 MOSFET.
Instance "m:u14:30": Length shorter than recommended for a level 1 MOSFET.
Instance "m:u14:28": Length shorter than recommended for a level 1 MOSFET.
Instance "m:u14:27": Length shorter than recommended for a level 1 MOSFET.
Instance "m:u14:26": Length shorter than recommended for a level 1 MOSFET.
Instance "m:u14:25": Length shorter than recommended for a level 1 MOSFET.
Instance "m:u14:29": Length shorter than recommended for a level 1 MOSFET.
Instance "m:u14:24": Length shorter than recommended for a level 1 MOSFET.
Direct Newton iteration failed to find .op point.  (Use ".option noopiter" to skip.)
Starting Gmin stepping
Gmin = 10
Gmin = 1.07374
vernier = 0.5
vernier = 0.25
vernier = 0.125
vernier = 0.0625
Gmin = 0.832963
vernier = 0.03125
vernier = 0.015625
vernier = 0.0078125
vernier = 0.00390625
Gmin = 0.816957
vernier = 0.00195313
vernier = 0.000976563
vernier = 0.000488281
Gmin = 0
Gmin stepping failed

Starting source stepping with srcstepmethod=0
Source Step = 3.0303%
Source Step = 33.3333%
Source Step = 37.7012%
vernier = 0.000976563
Source Step = 37.719%
Source Step = 37.7486%
Source Step = 37.7782%
Source Step = 37.8078%
Source Step = 37.8374%
vernier = 0.00146484
Source Step = 37.8773%
Source Step = 37.9217%
Source Step = 37.9661%
Source Step = 38.0105%
Source Step = 38.0549%
vernier = 0.00219727
Source Step = 38.1126%
Source Step = 38.1792%
Source Step = 38.2457%
Source Step = 38.3123%
Source Step = 38.3789%
vernier = 0.0032959
Source Step = 38.4621%
Source Step = 38.562%
Source Step = 38.6619%
Source Step = 38.7618%
Source Step = 38.8616%
vernier = 0.00494385
Source Step = 38.9815%
Source Step = 39.1313%
Source Step = 39.2811%
Source Step = 39.4309%
Source Step = 39.5807%
Source Step = 39.6145%
Source Step = 39.6519%
Source Step = 39.6894%
Source Step = 39.7268%
Source Step = 39.7643%
vernier = 0.00185394
Source Step = 39.8148%
Source Step = 39.871%
Source Step = 39.9272%
Source Step = 39.9834%
Source Step = 40.0395%
vernier = 0.00278091
Source Step = 40.1126%
Source Step = 40.1969%
Source Step = 40.2811%
Source Step = 40.3654%
Source Step = 40.4497%
vernier = 0.00417137
Source Step = 40.555%
Source Step = 40.6814%
Source Step = 40.8078%
Source Step = 40.9342%
Source Step = 41.0606%
vernier = 0.00625706
Source Step = 41.2123%
Source Step = 41.4019%
Source Step = 41.5915%
Source Step = 41.7811%
Source Step = 41.9707%
vernier = 0.00938559
Source Step = 42.1888%
Source Step = 42.4732%
Source Step = 42.7576%
Source Step = 43.042%
Source Step = 43.3264%
vernier = 0.0140784
Source Step = 43.6393%
Source Step = 44.0659%
Source Step = 44.4925%
Source Step = 44.9191%
Source Step = 45.3458%
vernier = 0.0211176
Source Step = 45.7937%
Source Step = 46.4336%
Source Step = 47.0736%
Source Step = 47.7135%
Source Step = 48.3534%
Source Step = 48.9933%
vernier = 0.0316764
Source Step = 49.9532%
Source Step = 50.9131%
Source Step = 51.873%
Source Step = 52.8329%
Source Step = 53.7928%
vernier = 0.0475145
Source Step = 55.1846%
Source Step = 56.6245%
Source Step = 58.0643%
Source Step = 59.5041%
Source Step = 60.944%
vernier = 0.0712718
Source Step = 62.9597%
Source Step = 65.1195%
Source Step = 67.2792%
Source Step = 69.439%
Source Step = 71.5987%
vernier = 0.106908
Source Step = 74.5144%
Source Step = 77.754%
Source Step = 80.9937%
Source Step = 84.2333%
Source Step = 87.4729%
vernier = 0.160362
Source Step = 90.834%
vernier = 0.0100226
Source Step = 90.7809%
Source Step = 90.8568%
Source Step = 90.9327%
Source Step = 91.0087%
Source Step = 91.0846%
Source Step = 91.1605%
Source Step = 91.2364%
Source Step = 91.3124%
Source Step = 91.3883%
Source Step = 91.4642%
Source Step = 91.5402%
Source Step = 91.6161%
Source Step = 91.692%
Source Step = 91.7679%
Source Step = 91.8439%
Source Step = 91.9198%
Source Step = 91.9957%
Source Step = 92.0717%
Source Step = 92.1476%
Source Step = 92.2235%
Source Step = 92.2994%
Source Step = 92.3754%
Source Step = 92.4513%
Source Step = 92.5272%
Source Step = 92.6032%
Source Step = 92.6791%
Source Step = 92.755%
Source Step = 92.8309%
Source Step = 92.9069%
Source Step = 92.9828%
Source Step = 93.0587%
Source Step = 93.1347%
Source Step = 93.2106%
Source Step = 93.2865%
Source Step = 93.3624%
Source Step = 93.4384%
Source Step = 93.5143%
Source Step = 93.5902%
Source Step = 93.6662%
Source Step = 93.7421%
Source Step = 93.818%
Source Step = 93.8939%
Source Step = 93.9699%
Source Step = 94.0458%
Source Step = 94.1217%
Source Step = 94.1977%
Source Step = 94.2736%
Source Step = 94.3495%
Source Step = 94.4254%
Source Step = 94.5014%
Source Step = 94.5773%
Source Step = 94.6532%
Source Step = 94.7292%
Source Step = 94.8051%
Source Step = 94.881%
Source Step = 94.957%
Source Step = 95.0329%
Source Step = 95.1088%
Source Step = 95.1847%
Source Step = 95.2607%
Source Step = 95.3366%
Source Step = 95.4125%
Source Step = 95.4885%
Source Step = 95.5644%
Source Step = 95.6403%
Source Step = 95.7162%
Source Step = 95.7922%
Source Step = 95.8681%
Source Step = 95.944%
Source Step = 96.02%
Source Step = 96.0959%
Source Step = 96.1718%
Source Step = 96.2477%
Source Step = 96.3237%
Source Step = 96.3996%
Source Step = 96.4755%
Source Step = 96.5515%
Source Step = 96.6274%
Source Step = 96.7033%
Source Step = 96.7792%
Source Step = 96.8552%
Source Step = 96.9311%
Source Step = 97.007%
Source Step = 97.083%
Source Step = 97.1589%
Source Step = 97.2348%
Source Step = 97.3107%
Source Step = 97.3867%
Source Step = 97.4626%
Source Step = 97.5385%
Source Step = 97.6145%
Source Step = 97.6904%
Source Step = 97.7663%
Source Step = 97.8422%
Source Step = 97.9182%
Source Step = 97.9941%
Source Step = 98.07%
Source Step = 98.146%
Source Step = 98.2219%
Source Step = 98.2978%
Source Step = 98.3737%
Source Step = 98.4497%
Source Step = 98.5256%
Source Step = 98.6015%
Source Step = 98.6775%
Source Step = 98.7534%
Source Step = 98.8293%
Source Step = 98.9052%
Source Step = 98.9812%
Source Step = 99.0571%
Source Step = 99.133%
Source Step = 99.209%
Source Step = 99.2849%
Source Step = 99.3608%
Source Step = 99.4367%
Source Step = 99.5127%
Source Step = 99.5886%
Source Step = 99.6645%
Source Step = 99.7405%
Source Step = 99.8164%
Source Step = 99.8923%
Source Step = 99.9682%
Source Step = 100%
Source Step = 100%
Source Step = 100%
Source Step = 100%
Source Step = 100%
Source Step = 100%
Source Step = 100%
Source Step = 100%
Source Step = 100%
Source Step = 100%
Source Step = 100%
Source Step = 100%
Source Step = 100%
Source Step = 100%
Source Step = 100%
Source Step = 100%
Source Step = 100%
Source Step = 100%
Source Step = 100%
Source Step = 100%
Source Step = 100%
Source Step = 100%
Source Step = 100%
Source Step = 100%
Source Step = 100%
Source Step = 100%
Source Step = 100%
Source Step = 100%
Source Step = 100%
Source Step = 100%
Source Step = 100%
Source Step = 100%
Source Step = 100%
Source Step = 100%
Source Step = 100%
Source Step = 100%
Source Step = 100%
Source Step = 100%
Source Step = 100%
Source Step = 100%
Source Step = 100%
Source Step = 100%
Source Step = 100%
Source Step = 100%
Source Step = 100%
Source Step = 100%
Source Step = 100%
Source Step = 100%
Source Step = 100%
Source Step = 100%
Source Step = 100%
Source Step = 100%
Source Step = 100%
Source Step = 100%
Source Step = 100%
Source Step = 100%
Source Step = 100%
Source Step = 100%
Source Step = 100%
Source Step = 100%
Source Step = 100%
Source Step = 100%
Source Step = 100%
Source Step = 100%
Source Step = 100%
Source Step = 100%
Source Step = 100%
Source Step = 100%
Source Step = 100%
Source Step = 100%
Source Step = 100%
Source Step = 100%
Source Step = 100%
Source Step = 100%
Source Step = 100%
Source Step = 100%
Source Step = 100%
Source Step = 100%
Source Step = 100%
Source Step = 100%
Source Step = 100%
Source Step = 100%
Source Step = 100%
Source Step = 100%
Source Step = 100%
Source Step = 100%
Source Step = 100%
Source Step = 100%
Source Step = 100%
Source Step = 100%
Source Step = 100%
Source Step = 100%
Source Step = 100%
Source Step = 100%
Source Step = 100%
Source Step = 100%
Source Step = 100%
Source Step = 100%
Source Step = 100%
Source Step = 100%
Source Step = 100%
Source Step = 100%
Source Step = 100%
Source Step = 100%
Source Step = 100%
Source Step = 100%
Source Step = 100%
Source Step = 100%
Source Step = 100%
Source Step = 100%
Source Step = 100%
Source Step = 100%
Source Step = 100%
Source Step = 100%
Source Step = 100%
Source Step = 100%
Source Step = 100%
Source Step = 100%
Source Step = 100%
Source Step = 100%
Source Step = 100%
Source Step = 100%
Source Step = 100%
Source Step = 100%
Source Step = 100%
Source Step = 100%
Source Step = 100%
Source Step = 100%
Source Step = 100%
Source Step = 100%
Source Step = 100%
Source Step = 100%
Source Step = 100%
Source Step = 100%
Source Step = 100%
Source Step = 100%
Source Step = 100%
Source Step = 100%
Source Step = 100%
Source Step = 100%
Source Step = 100%
Source Step = 100%
Source Step = 100%
Source Step = 100%
Source Step = 100%
Source Step = 100%
Source Step = 100%
Source Step = 100%
Source Step = 100%
Source Step = 100%
Source Step = 100%
Source Step = 100%
Source Step = 100%
Source Step = 100%
Source Step = 100%
Source Step = 100%
Source Step = 100%
Source Step = 100%
Source Step = 100%
Source Step = 100%
Source Step = 100%
Source Step = 100%
Source Step = 100%
Source Step = 100%
Source Step = 100%
Source Step = 100%
Source Step = 100%
Source Step = 100%
Source Step = 100%
Source Step = 100%
Source Step = 100%
Source Step = 100%
Source Step = 100%
Source Step = 100%
Source Step = 100%
Source Step = 100%
Source Step = 100%
Source Step = 100%
Source Step = 100%
Source Step = 100%
Source Step = 100%
Source Step = 100%
Source Step = 100%
Source Step = 100%
Source Step = 100%
Source Step = 100%
Source Step = 100%
Source Step = 100%
Source Step = 100%
Source Step = 100%
Source Step = 100%
Source Step = 100%
Source Step = 100%
Source Step = 100%
Source Step = 100%
Source Step = 100%
Source Step = 100%
Source Step = 100%
Source Step = 100%
Source Step = 100%
Source Step = 100%
Source Step = 100%
Source Step = 100%
Source Step = 100%
Source Step = 100%
Source Step = 100%
Source Step = 100%
Source Step = 100%
Source Step = 100%
Source Step = 100%
Source Step = 100%
Source Step = 100%
Source Step = 100%
Source Step = 100%
Source Step = 100%
Source Step = 100%
Source Step = 100%
Source Step = 100%
Source Step = 100%
Source Step = 100%
Source Step = 100%
Source Step = 100%
Source Step = 100%
Source Step = 100%
Source stepping aborted.
Starting source stepping with srcstepmethod=1
Source Step = 3.0303%
Source Step = 33.3333%
Source Step = 63.6364%
Source Step = 93.9394%
Source stepping aborted.
Pseudo Transient failed in finding the operating point at 6.95614 µs.
Trouble finding operating point....skipping operating point for Transient analysis.
Changing Tseed to 2.92969e-008
Changing Tseed to 2.92969e-010
Changing Tseed to 2.92969e-007
Changing Tseed to 2.92969e-011
Changing Tseed to 2.92969e-006
Changing Tseed to 2.92969e-012
Changing Tseed to 2.92969e-005
Changing Tseed to 2.92969e-013
Changing Tseed to 0.000292969
Changing Tseed to 2.92969e-014
Changing Tseed to 0.00292969
Changing Tseed to 2.92969e-015
Fatal Error: Analysis:  Time step too small; initial timepoint: trouble with schmitt-instance a:u4:3

