Circuit: * D:\Google Drive\Projects\Falmo\electronics\LT1078-freq.asc

WARNING: Less than two connections to node VINR.  This node is used by R7.
Direct Newton iteration for .op point succeeded.

Date: Tue Aug 13 08:37:37 2019
Total elapsed time: 6.593 seconds.

tnom = 27
temp = 27
method = modified trap
totiter = 508631
traniter = 508618
tranpoints = 172177
accept = 128835
rejected = 43342
matrix size = 15
fillins = 7
solver = Normal
Matrix Compiler1: 974 bytes object code size  0.4/0.2/[0.2]
Matrix Compiler2: 1.20 KB object code size  0.2/0.3/[0.2]

