Circuit: * D:\Google Drive\Projects\Falmo\electronics\LT1078_TA08.asc

Direct Newton iteration for .op point succeeded.

Date: Wed Aug 07 15:11:33 2019
Total elapsed time: 0.191 seconds.

tnom = 27
temp = 27
method = modified trap
totiter = 2430
traniter = 2405
tranpoints = 1110
accept = 1090
rejected = 20
matrix size = 21
fillins = 23
solver = Normal
Matrix Compiler1: 1.60 KB object code size  0.7/0.4/[0.3]
Matrix Compiler2: off  [0.4]/0.5/0.4

