Circuit: * C:\Documents and Settings\Ron Fredericks\My Documents\Embedded Components\Projects\LTspiceSwitcherCADIII\74HC193_5v\74HC193_test2.asc

Limiting rise time of source v5 to 2.5e-006
Limiting fall time of source v5 to 2.5e-006
Limiting rise time of source v3 to 2.8e-006
Limiting fall time of source v3 to 2.8e-006
WARNING: Less than two connections to node Q0.  This node is used by A35.
WARNING: Less than two connections to node Q1.  This node is used by A36.
WARNING: Less than two connections to node Q2.  This node is used by A37.
WARNING: Less than two connections to node Q3.  This node is used by A38.
WARNING: Less than two connections to node TC\_D.  This node is used by A39.
WARNING: Less than two connections to node TC\_U.  This node is used by A40.
Direct Newton iteration for .op point succeeded.
Changing Tseed to 2.8e-010
Date: Mon Apr 21 00:36:57 2008
Total elapsed time: 0.735 seconds.

tnom = 27
temp = 27
method = modified trap
totiter = 14031
traniter = 14024
tranpoints = 4617
accept = 3575
rejected = 1041
trancuriters = 0
matrix size = 76
fillins = 0
solver = Normal

