
**** 03/27/19 16:52:58 ******* PSpice 16.2.0 (Oct 2008) ******* ID# 0 ********

 ** Profile: "SCHEMATIC1-TRAN"  [ C:\Users\a0867324\Documents\Docs-Projects\SPICE Models\Interface\TMUX1208\TMUX1208_PSPICE_AIO\TMUX1


 ****     CIRCUIT DESCRIPTION


******************************************************************************




** Creating circuit file "TRAN.cir" 
** WARNING: THIS AUTOMATICALLY GENERATED FILE MAY BE OVERWRITTEN BY SUBSEQUENT SIMULATIONS

*Libraries: 
* Profile Libraries :
* Local Libraries :
.LIB "../../../tmux1208.lib" 
* From [PSPICE NETLIST] section of C:\Cadence\SPB_16.2\tools\PSpice\PSpice.ini file:
.lib "nom.lib" 

*Analysis directives: 
.TRAN  0 150u 0 
.PROBE V(alias(*)) I(alias(*)) W(alias(*)) D(alias(*)) NOISE(alias(*)) 
.INC "..\SCHEMATIC1.net" 



**** INCLUDING SCHEMATIC1.net ****
* source TMUX1208
R_R3         N00742 S3  50 TC=0,0 
V_V2         N00444 0  
+SIN 5 1 100k 0 0 0
V_V12         A1 0  
+PULSE 0 2 100n 1u 1u 25u 50u
R_R9         D 0  50 TC=0,0 
V_V7         N01087 0  
+SIN 5 1 3.2e6 0 0 0
V_V9         N01332 0  
+SIN 5 1 12.8e6 0 0 0
V_V5         N00854 0  
+SIN 5 1 800k 0 0 0
V_V3         N00621 0  
+SIN 5 1 200k 0 0 0
R_R6         N01087 S6  50 TC=0,0 
R_R8         N01332 S8  50 TC=0,0 
R_R4         N00854 S4  50 TC=0,0 
V_V13         A2 0  
+PULSE 0 2 100u 1u 1u 50u 100u
R_R2         N00621 S2  50 TC=0,0 
R_R1         N00444 S1  50 TC=0,0 
X_U1         A2 A1 A0 N01938 S1 S2 S3 S4 S5 S6 S7 S8 D N00218 0 TMUX1208 
V_V10         N01938 0 2Vdc
V_V1         N00218 0 5Vdc
V_V8         N01208 0  
+SIN 5 1 6.4e6 0 0 0
V_V11         A0 0  
+PULSE 0 2 100n 1u 1u 12.5u 25u
V_V6         N00969 0  
+SIN 5 1 1.6e6 0 0 0
V_V4         N00742 0  
+SIN 5 1 400k 0 0 0
R_R7         N01208 S7  50 TC=0,0 
R_R5         N00969 S5  50 TC=0,0 

**** RESUMING TRAN.cir ****
.END

**** 03/27/19 16:52:58 ******* PSpice 16.2.0 (Oct 2008) ******* ID# 0 ********

 ** Profile: "SCHEMATIC1-TRAN"  [ C:\Users\a0867324\Documents\Docs-Projects\SPICE Models\Interface\TMUX1208\TMUX1208_PSPICE_AIO\TMUX1


 ****     Diode MODEL PARAMETERS


******************************************************************************




               X_U1.Dideal     
          IS   10.000000E-15 


**** 03/27/19 16:52:58 ******* PSpice 16.2.0 (Oct 2008) ******* ID# 0 ********

 ** Profile: "SCHEMATIC1-TRAN"  [ C:\Users\a0867324\Documents\Docs-Projects\SPICE Models\Interface\TMUX1208\TMUX1208_PSPICE_AIO\TMUX1


 ****     Voltage Controlled Switch MODEL PARAMETERS


******************************************************************************




               X_U1.X_U1_S1._U1_S1 
         RON    1.000000E-03 
        ROFF   10.000000E+06 
         VON     .75         
        VOFF     .25         


               X_U1.X_U1_S2._U1_S2 
         RON    1.000000E-03 
        ROFF   10.000000E+06 
         VON     .75         
        VOFF     .25         


               X_U1.X_U1_S3._U1_S3 
         RON    1.000000E-03 
        ROFF   10.000000E+06 
         VON     .25         
        VOFF     .75         


               X_U1.X_U1_S4._U1_S4 
         RON    1.000000E-03 
        ROFF   10.000000E+06 
         VON     .25         
        VOFF     .75         


               X_U1.X_U6_S1._U6_S1 
         RON    1.000000E-03 
        ROFF   10.000000E+06 
         VON     .75         
        VOFF     .25         


               X_U1.X_U6_S2._U6_S2 
         RON    1.000000E-03 
        ROFF   10.000000E+06 
         VON     .75         
        VOFF     .25         


               X_U1.X_U6_S3._U6_S3 
         RON    1.000000E-03 
        ROFF   10.000000E+06 
         VON     .25         
        VOFF     .75         


               X_U1.X_U6_S4._U6_S4 
         RON    1.000000E-03 
        ROFF   10.000000E+06 
         VON     .25         
        VOFF     .75         


               X_U1.X_U2_S1._U2_S1 
         RON    1.000000E-03 
        ROFF   10.000000E+06 
         VON     .75         
        VOFF     .25         


               X_U1.X_U2_S2._U2_S2 
         RON    1.000000E-03 
        ROFF   10.000000E+06 
         VON     .75         
        VOFF     .25         


               X_U1.X_U2_S3._U2_S3 
         RON    1.000000E-03 
        ROFF   10.000000E+06 
         VON     .25         
        VOFF     .75         


               X_U1.X_U2_S4._U2_S4 
         RON    1.000000E-03 
        ROFF   10.000000E+06 
         VON     .25         
        VOFF     .75         


               X_U1.X_U5_S1._U5_S1 
         RON    1.000000E-03 
        ROFF   10.000000E+06 
         VON     .75         
        VOFF     .25         


               X_U1.X_U5_S2._U5_S2 
         RON    1.000000E-03 
        ROFF   10.000000E+06 
         VON     .75         
        VOFF     .25         


               X_U1.X_U5_S3._U5_S3 
         RON    1.000000E-03 
        ROFF   10.000000E+06 
         VON     .25         
        VOFF     .75         


               X_U1.X_U5_S4._U5_S4 
         RON    1.000000E-03 
        ROFF   10.000000E+06 
         VON     .25         
        VOFF     .75         


               X_U1.X_U8_S1._U8_S1 
         RON    1.000000E-03 
        ROFF   10.000000E+06 
         VON     .75         
        VOFF     .25         


               X_U1.X_U8_S2._U8_S2 
         RON    1.000000E-03 
        ROFF   10.000000E+06 
         VON     .75         
        VOFF     .25         


               X_U1.X_U8_S3._U8_S3 
         RON    1.000000E-03 
        ROFF   10.000000E+06 
         VON     .25         
        VOFF     .75         


               X_U1.X_U8_S4._U8_S4 
         RON    1.000000E-03 
        ROFF   10.000000E+06 
         VON     .25         
        VOFF     .75         


               X_U1.X_U4_S1._U4_S1 
         RON    1.000000E-03 
        ROFF   10.000000E+06 
         VON     .75         
        VOFF     .25         


               X_U1.X_U4_S2._U4_S2 
         RON    1.000000E-03 
        ROFF   10.000000E+06 
         VON     .75         
        VOFF     .25         


               X_U1.X_U4_S3._U4_S3 
         RON    1.000000E-03 
        ROFF   10.000000E+06 
         VON     .25         
        VOFF     .75         


               X_U1.X_U4_S4._U4_S4 
         RON    1.000000E-03 
        ROFF   10.000000E+06 
         VON     .25         
        VOFF     .75         


               X_U1.X_U7_S1._U7_S1 
         RON    1.000000E-03 
        ROFF   10.000000E+06 
         VON     .75         
        VOFF     .25         


               X_U1.X_U7_S2._U7_S2 
         RON    1.000000E-03 
        ROFF   10.000000E+06 
         VON     .75         
        VOFF     .25         


               X_U1.X_U7_S3._U7_S3 
         RON    1.000000E-03 
        ROFF   10.000000E+06 
         VON     .25         
        VOFF     .75         


               X_U1.X_U7_S4._U7_S4 
         RON    1.000000E-03 
        ROFF   10.000000E+06 
         VON     .25         
        VOFF     .75         


               X_U1.X_U3_S1._U3_S1 
         RON    1.000000E-03 
        ROFF   10.000000E+06 
         VON     .75         
        VOFF     .25         


               X_U1.X_U3_S2._U3_S2 
         RON    1.000000E-03 
        ROFF   10.000000E+06 
         VON     .75         
        VOFF     .25         


               X_U1.X_U3_S3._U3_S3 
         RON    1.000000E-03 
        ROFF   10.000000E+06 
         VON     .25         
        VOFF     .75         


               X_U1.X_U3_S4._U3_S4 
         RON    1.000000E-03 
        ROFF   10.000000E+06 
         VON     .25         
        VOFF     .75         


**** 03/27/19 16:52:58 ******* PSpice 16.2.0 (Oct 2008) ******* ID# 0 ********

 ** Profile: "SCHEMATIC1-TRAN"  [ C:\Users\a0867324\Documents\Docs-Projects\SPICE Models\Interface\TMUX1208\TMUX1208_PSPICE_AIO\TMUX1


 ****     INITIAL TRANSIENT SOLUTION       TEMPERATURE =   27.000 DEG C


******************************************************************************



 NODE   VOLTAGE     NODE   VOLTAGE     NODE   VOLTAGE     NODE   VOLTAGE


(    D)    2.4471  (   A0)    0.0000  (   A1)    0.0000  (   A2)    0.0000      

(   S1)    2.5529  (   S2)    5.0000  (   S3)    5.0000  (   S4)    5.0000      

(   S5)    5.0000  (   S6)    5.0000  (   S7)    5.0000  (   S8)    5.0000      

(N00218)    5.0000 (N00444)    5.0000 (N00621)    5.0000 (N00742)    5.0000     

(N00854)    5.0000 (N00969)    5.0000 (N01087)    5.0000 (N01208)    5.0000     

(N01332)    5.0000 (N01938)    2.0000 (X_U1.CNTRL1)    1.0000                   

(X_U1.CNTRL2)    0.0000               (X_U1.CNTRL3)    0.0000                   

(X_U1.CNTRL4)    0.0000               (X_U1.CNTRL5)    0.0000                   

(X_U1.CNTRL6)    0.0000               (X_U1.CNTRL7)    0.0000                   

(X_U1.CNTRL8)    0.0000               (X_U1.EN_INT)    1.0000                   

(X_U1.U1_NISO)    0.0000              (X_U1.U2_NISO)    0.0000                  

(X_U1.U3_NISO)    0.0000              (X_U1.U4_NISO)    0.0000                  

(X_U1.U5_NISO)    0.0000              (X_U1.U6_NISO)    0.0000                  

(X_U1.U7_NISO)    0.0000              (X_U1.U8_NISO)    0.0000                  

(X_U1.VCC_MON)    1.0000              (X_U1.X_U29.N1)    1.0000                 

(X_U1.X_U29.N2)    1.0000             (X_U1.U10_RC_IN)   10.0000                

(X_U1.U11_RC_IN)    0.0000            (X_U1.U12_RC_IN)    0.0000                

(X_U1.U13_RC_IN)    0.0000            (X_U1.U14_RC_IN)    0.0000                

(X_U1.U15_RC_IN)    0.0000            (X_U1.U16_RC_IN)    0.0000                

(X_U1.U17_RC_IN)    0.0000            (X_U1.U1_N00735)    2.5529                

(X_U1.U1_N00768)    2.4472            (X_U1.U1_N06210)    2.5529                

(X_U1.U1_N06532)    2.4472            (X_U1.U1_N12958)    2.5529                

(X_U1.U1_N13923)    2.4471            (X_U1.U2_N00735)    3.7236                

(X_U1.U2_N00768)    3.7236            (X_U1.U2_N06210)    3.7236                

(X_U1.U2_N06532)    3.7236            (X_U1.U2_N12958)    5.0000                

(X_U1.U2_N13923)    2.4471            (X_U1.U3_N00735)    3.7236                

(X_U1.U3_N00768)    3.7236            (X_U1.U3_N06210)    3.7236                

(X_U1.U3_N06532)    3.7236            (X_U1.U3_N12958)    5.0000                

(X_U1.U3_N13923)    2.4471            (X_U1.U4_N00735)    3.7236                

(X_U1.U4_N00768)    3.7236            (X_U1.U4_N06210)    3.7236                

(X_U1.U4_N06532)    3.7236            (X_U1.U4_N12958)    5.0000                

(X_U1.U4_N13923)    2.4471            (X_U1.U5_N00735)    3.7236                

(X_U1.U5_N00768)    3.7236            (X_U1.U5_N06210)    3.7236                

(X_U1.U5_N06532)    3.7236            (X_U1.U5_N12958)    5.0000                

(X_U1.U5_N13923)    2.4471            (X_U1.U6_N00735)    3.7236                

(X_U1.U6_N00768)    3.7236            (X_U1.U6_N06210)    3.7236                

(X_U1.U6_N06532)    3.7236            (X_U1.U6_N12958)    5.0000                

(X_U1.U6_N13923)    2.4471            (X_U1.U7_N00735)    3.7236                

(X_U1.U7_N00768)    3.7236            (X_U1.U7_N06210)    3.7236                

(X_U1.U7_N06532)    3.7236            (X_U1.U7_N12958)    5.0000                

(X_U1.U7_N13923)    2.4471            (X_U1.U8_N00735)    3.7236                

(X_U1.U8_N00768)    3.7236            (X_U1.U8_N06210)    3.7236                

(X_U1.U8_N06532)    3.7236            (X_U1.U8_N12958)    5.0000                

(X_U1.U8_N13923)    2.4471            (X_U1.X_U29.NA0)    0.0000                

(X_U1.X_U29.NA1)    0.0000            (X_U1.X_U29.NA2)    0.0000                

(X_U1.X_U29.NEN)    1.0000            (X_U1.U10_RC_OUT)   10.0000               

(X_U1.U11_RC_OUT) 213.7E-27           (X_U1.U12_RC_OUT) 213.7E-27               

(X_U1.U13_RC_OUT) 213.7E-27           (X_U1.U14_RC_OUT) 213.7E-27               

(X_U1.U15_RC_OUT) 213.7E-27           (X_U1.U16_RC_OUT) 213.7E-27               

(X_U1.U17_RC_OUT) 213.7E-27           (X_U1.X_U1_U1.N1)    3.0860               

(X_U1.X_U1_U1.N2)    2.1595           (X_U1.X_U1_U1.N3)    3.3286               

(X_U1.X_U1_U1.N4)    2.1595           (X_U1.X_U2_U1.N1)    4.1992               

(X_U1.X_U2_U1.N2)    2.8991           (X_U1.X_U2_U1.N3)    2.4574               

(X_U1.X_U2_U1.N4)    2.4574           (X_U1.X_U3_U1.N1)    4.1992               

(X_U1.X_U3_U1.N2)    2.8991           (X_U1.X_U3_U1.N3)    2.4574               

(X_U1.X_U3_U1.N4)    2.4574           (X_U1.X_U4_U1.N1)    4.1992               

(X_U1.X_U4_U1.N2)    2.8991           (X_U1.X_U4_U1.N3)    2.4574               

(X_U1.X_U4_U1.N4)    2.4574           (X_U1.X_U5_U1.N1)    4.1992               

(X_U1.X_U5_U1.N2)    2.8991           (X_U1.X_U5_U1.N3)    2.4574               

(X_U1.X_U5_U1.N4)    2.4574           (X_U1.X_U6_U1.N1)    4.1992               

(X_U1.X_U6_U1.N2)    2.8991           (X_U1.X_U6_U1.N3)    2.4574               

(X_U1.X_U6_U1.N4)    2.4574           (X_U1.X_U7_U1.N1)    4.1992               

(X_U1.X_U7_U1.N2)    2.8991           (X_U1.X_U7_U1.N3)    2.4574               

(X_U1.X_U7_U1.N4)    2.4574           (X_U1.X_U8_U1.N1)    4.1992               

(X_U1.X_U8_U1.N2)    2.8991           (X_U1.X_U8_U1.N3)    2.4574               

(X_U1.X_U8_U1.N4)    2.4574           (X_U1.U10_N345775)    5.0000              

(X_U1.U10_N345841)   10.0000          (X_U1.U10_N349504)   10.0000              

(X_U1.U11_N345775)    5.0000          (X_U1.U11_N345841) 855.0E-27              

(X_U1.U11_N349504)-427.5E-27          (X_U1.U12_N345775)    5.0000              

(X_U1.U12_N345841) 855.0E-27          (X_U1.U12_N349504)-427.5E-27              

(X_U1.U13_N345775)    5.0000          (X_U1.U13_N345841) 855.0E-27              

(X_U1.U13_N349504)-427.5E-27          (X_U1.U14_N345775)    5.0000              

(X_U1.U14_N345841) 855.0E-27          (X_U1.U14_N349504)-427.5E-27              

(X_U1.U15_N345775)    5.0000          (X_U1.U15_N345841) 855.0E-27              

(X_U1.U15_N349504)-427.5E-27          (X_U1.U16_N345775)    5.0000              

(X_U1.U16_N345841) 855.0E-27          (X_U1.U16_N349504)-427.5E-27              

(X_U1.U17_N345775)    5.0000          (X_U1.U17_N345841) 855.0E-27              

(X_U1.U17_N349504)-427.5E-27          (X_U1.CNTRL1_DELAY)    1.0000             

(X_U1.CNTRL2_DELAY)    0.0000         (X_U1.CNTRL3_DELAY)    0.0000             

(X_U1.CNTRL4_DELAY)    0.0000         (X_U1.CNTRL5_DELAY)    0.0000             

(X_U1.CNTRL6_DELAY)    0.0000         (X_U1.CNTRL7_DELAY)    0.0000             

(X_U1.CNTRL8_DELAY)    0.0000         (X_U1.X_U1_U1.NVCC)    5.0000             

(X_U1.X_U2_U1.NVCC)    5.0000         (X_U1.X_U3_U1.NVCC)    5.0000             

(X_U1.X_U4_U1.NVCC)    5.0000         (X_U1.X_U5_U1.NVCC)    5.0000             

(X_U1.X_U6_U1.NVCC)    5.0000         (X_U1.X_U7_U1.NVCC)    5.0000             

(X_U1.X_U8_U1.NVCC)    5.0000         (X_U1.X_U1_U1.NA0_1)    1.5927            

(X_U1.X_U1_U1.NA0_2)    3.5270        (X_U1.X_U1_U1.NA0_3)    6.4755            

(X_U1.X_U1_U1.NA1_1)     .3341        (X_U1.X_U1_U1.NA1_2)   -1.3360            

(X_U1.X_U1_U1.NA1_3)   -1.5676        (X_U1.X_U1_U1.NA2_1)     .0983            

(X_U1.X_U1_U1.NA2_2)     .3135        (X_U1.X_U1_U1.NA2_3)     .1312            

(X_U1.X_U2_U1.NA0_1)    1.5927        (X_U1.X_U2_U1.NA0_2)    3.5270            

(X_U1.X_U2_U1.NA0_3)    6.4755        (X_U1.X_U2_U1.NA1_1)     .3341            

(X_U1.X_U2_U1.NA1_2)   -1.3360        (X_U1.X_U2_U1.NA1_3)   -1.5676            

(X_U1.X_U2_U1.NA2_1)     .0983        (X_U1.X_U2_U1.NA2_2)     .3135            

(X_U1.X_U2_U1.NA2_3)     .1312        (X_U1.X_U3_U1.NA0_1)    1.5927            

(X_U1.X_U3_U1.NA0_2)    3.5270        (X_U1.X_U3_U1.NA0_3)    6.4755            

(X_U1.X_U3_U1.NA1_1)     .3341        (X_U1.X_U3_U1.NA1_2)   -1.3360            

(X_U1.X_U3_U1.NA1_3)   -1.5676        (X_U1.X_U3_U1.NA2_1)     .0983            

(X_U1.X_U3_U1.NA2_2)     .3135        (X_U1.X_U3_U1.NA2_3)     .1312            

(X_U1.X_U4_U1.NA0_1)    1.5927        (X_U1.X_U4_U1.NA0_2)    3.5270            

(X_U1.X_U4_U1.NA0_3)    6.4755        (X_U1.X_U4_U1.NA1_1)     .3341            

(X_U1.X_U4_U1.NA1_2)   -1.3360        (X_U1.X_U4_U1.NA1_3)   -1.5676            

(X_U1.X_U4_U1.NA2_1)     .0983        (X_U1.X_U4_U1.NA2_2)     .3135            

(X_U1.X_U4_U1.NA2_3)     .1312        (X_U1.X_U5_U1.NA0_1)    1.5927            

(X_U1.X_U5_U1.NA0_2)    3.5270        (X_U1.X_U5_U1.NA0_3)    6.4755            

(X_U1.X_U5_U1.NA1_1)     .3341        (X_U1.X_U5_U1.NA1_2)   -1.3360            

(X_U1.X_U5_U1.NA1_3)   -1.5676        (X_U1.X_U5_U1.NA2_1)     .0983            

(X_U1.X_U5_U1.NA2_2)     .3135        (X_U1.X_U5_U1.NA2_3)     .1312            

(X_U1.X_U6_U1.NA0_1)    1.5927        (X_U1.X_U6_U1.NA0_2)    3.5270            

(X_U1.X_U6_U1.NA0_3)    6.4755        (X_U1.X_U6_U1.NA1_1)     .3341            

(X_U1.X_U6_U1.NA1_2)   -1.3360        (X_U1.X_U6_U1.NA1_3)   -1.5676            

(X_U1.X_U6_U1.NA2_1)     .0983        (X_U1.X_U6_U1.NA2_2)     .3135            

(X_U1.X_U6_U1.NA2_3)     .1312        (X_U1.X_U7_U1.NA0_1)    1.5927            

(X_U1.X_U7_U1.NA0_2)    3.5270        (X_U1.X_U7_U1.NA0_3)    6.4755            

(X_U1.X_U7_U1.NA1_1)     .3341        (X_U1.X_U7_U1.NA1_2)   -1.3360            

(X_U1.X_U7_U1.NA1_3)   -1.5676        (X_U1.X_U7_U1.NA2_1)     .0983            

(X_U1.X_U7_U1.NA2_2)     .3135        (X_U1.X_U7_U1.NA2_3)     .1312            

(X_U1.X_U8_U1.NA0_1)    1.5927        (X_U1.X_U8_U1.NA0_2)    3.5270            

(X_U1.X_U8_U1.NA0_3)    6.4755        (X_U1.X_U8_U1.NA1_1)     .3341            

(X_U1.X_U8_U1.NA1_2)   -1.3360        (X_U1.X_U8_U1.NA1_3)   -1.5676            

(X_U1.X_U8_U1.NA2_1)     .0983        (X_U1.X_U8_U1.NA2_2)     .3135            

(X_U1.X_U8_U1.NA2_3)     .1312        




    VOLTAGE SOURCE CURRENTS
    NAME         CURRENT

    V_V2        -4.894E-02
    V_V12        0.000E+00
    V_V7        -1.277E-07
    V_V9        -1.277E-07
    V_V5        -1.277E-07
    V_V3        -1.277E-07
    V_V13        0.000E+00
    V_V10        0.000E+00
    V_V1        -2.001E-08
    V_V8        -1.277E-07
    V_V11        0.000E+00
    V_V6        -1.277E-07
    V_V4        -1.277E-07
    X_U1.V_U15_V1   0.000E+00
    X_U1.V_U14_V1   0.000E+00
    X_U1.V_U10_V1   0.000E+00
    X_U1.V_U13_V1   0.000E+00
    X_U1.V_U12_V1   0.000E+00
    X_U1.V_U11_V1   0.000E+00
    X_U1.V_U17_V1   0.000E+00
    X_U1.V_U16_V1   0.000E+00

    TOTAL POWER DISSIPATION   2.45E-01  WATTS

Reducing minimum delta to make the circuit converge.
Reducing minimum delta to make the circuit converge.
Reducing minimum delta to make the circuit converge.

ERROR -- Convergence problem in transient analysis at Time =  535.7E-09
         Time step =  217.2E-21, minimum allowable step size =  1.000E-18

  These voltages failed to converge:

    V(X_U1.U1_NISO)           =    -2.166V  \    76.24mV
    V(X_U1.U1_N13923)         =   281.37mV  \     2.524V
    V(X_U1.U1_N12958)         =   387.19mV  \     2.629V

  These devices failed to converge:
    X_U1.X_U10_U9.EOUT 



  Last node voltages tried were:

 NODE   VOLTAGE     NODE   VOLTAGE     NODE   VOLTAGE     NODE   VOLTAGE


(    D)    2.6067  (   A0)     .8713  (   A1)     .8713  (   A2)    0.0000      

(   S1)    2.7218  (   S2)    5.6232  (   S3)    5.9749  (   S4)    5.4365      

(   S5)    4.2152  (   S6)    4.0278  (   S7)    5.4531  (   S8)    4.1933      

(N00218)    5.0000 (N00444)    5.3303 (N00621)    5.6234 (N00742)    5.9749     

(N00854)    5.4341 (N00969)    4.2179 (N01087)    4.0253 (N01208)    5.4354     

(N01332)    4.2160 (N01938)    2.0000 (X_U1.CNTRL1)    0.0000                   

(X_U1.CNTRL2)    0.0000               (X_U1.CNTRL3)    0.0000                   

(X_U1.CNTRL4)    1.0000               (X_U1.CNTRL5)    0.0000                   

(X_U1.CNTRL6)    0.0000               (X_U1.CNTRL7)    0.0000                   

(X_U1.CNTRL8)    0.0000               (X_U1.EN_INT)    1.0000                   

(X_U1.U1_NISO)   -2.1659              (X_U1.U2_NISO)     .3908                  

(X_U1.U3_NISO)     .5663              (X_U1.U4_NISO)     .2970                  

(X_U1.U5_NISO)    -.3129              (X_U1.U6_NISO)    -.4066                  

(X_U1.U7_NISO)     .3061              (X_U1.U8_NISO)    -.3237                  

(X_U1.VCC_MON)    1.0000              (X_U1.X_U29.N1)    1.0000                 

(X_U1.X_U29.N2)    1.0000             (X_U1.U10_RC_IN)    0.0000                

(X_U1.U11_RC_IN)    0.0000            (X_U1.U12_RC_IN)    0.0000                

(X_U1.U13_RC_IN)   10.0000            (X_U1.U14_RC_IN)    0.0000                

(X_U1.U15_RC_IN)    0.0000            (X_U1.U16_RC_IN)    0.0000                

(X_U1.U17_RC_IN)    0.0000            (X_U1.U1_N00735)    2.7218                

(X_U1.U1_N00768)    2.6067            (X_U1.U1_N06210)    2.7220                

(X_U1.U1_N06532)    2.6065            (X_U1.U1_N12958)     .3872                

(X_U1.U1_N13923)     .2814            (X_U1.U2_N00735)    3.7289                

(X_U1.U2_N00768)    3.7289            (X_U1.U2_N06210)    3.7289                

(X_U1.U2_N06532)    3.7289            (X_U1.U2_N12958)    5.6232                

(X_U1.U2_N13923)    2.6067            (X_U1.U3_N00735)    3.7323                

(X_U1.U3_N00768)    3.7323            (X_U1.U3_N06210)    3.7323                

(X_U1.U3_N06532)    3.7323            (X_U1.U3_N12958)    5.9749                

(X_U1.U3_N13923)    2.6067            (X_U1.U4_N00735)    3.7340                

(X_U1.U4_N00768)    3.7340            (X_U1.U4_N06210)    3.7340                

(X_U1.U4_N06532)    3.7340            (X_U1.U4_N12958)    5.4365                

(X_U1.U4_N13923)    2.6067            (X_U1.U5_N00735)    3.7255                

(X_U1.U5_N00768)    3.7255            (X_U1.U5_N06210)    3.7255                

(X_U1.U5_N06532)    3.7255            (X_U1.U5_N12958)    4.2152                

(X_U1.U5_N13923)    2.6067            (X_U1.U6_N00735)    3.7261                

(X_U1.U6_N00768)    3.7261            (X_U1.U6_N06210)    3.7261                

(X_U1.U6_N06532)    3.7261            (X_U1.U6_N12958)    4.0278                

(X_U1.U6_N13923)    2.6067            (X_U1.U7_N00735)    3.7258                

(X_U1.U7_N00768)    3.7258            (X_U1.U7_N06210)    3.7258                

(X_U1.U7_N06532)    3.7258            (X_U1.U7_N12958)    5.4531                

(X_U1.U7_N13923)    2.6067            (X_U1.U8_N00735)    3.7248                

(X_U1.U8_N00768)    3.7248            (X_U1.U8_N06210)    3.7248                

(X_U1.U8_N06532)    3.7248            (X_U1.U8_N12958)    4.1933                

(X_U1.U8_N13923)    2.6067            (X_U1.X_U29.NA0)    1.0000                

(X_U1.X_U29.NA1)    1.0000            (X_U1.X_U29.NA2)    0.0000                

(X_U1.X_U29.NEN)    1.0000            (X_U1.U10_RC_OUT)    5.0000               

(X_U1.U11_RC_OUT) 213.7E-27           (X_U1.U12_RC_OUT) 213.7E-27               

(X_U1.U13_RC_OUT)    3.1632           (X_U1.U14_RC_OUT) 213.7E-27               

(X_U1.U15_RC_OUT) 213.7E-27           (X_U1.U16_RC_OUT) 213.7E-27               

(X_U1.U17_RC_OUT) 213.7E-27           (X_U1.X_U1_U1.N1)    3.2301               

(X_U1.X_U1_U1.N2)    2.2132           (X_U1.X_U1_U1.N3)    3.1806               

(X_U1.X_U1_U1.N4)    2.2132           (X_U1.X_U2_U1.N1)    4.2049               

(X_U1.X_U2_U1.N2)    2.9044           (X_U1.X_U2_U1.N3)    2.4543               

(X_U1.X_U2_U1.N4)    2.4543           (X_U1.X_U3_U1.N1)    4.2084               

(X_U1.X_U3_U1.N2)    2.9078           (X_U1.X_U3_U1.N3)    2.4523               

(X_U1.X_U3_U1.N4)    2.4523           (X_U1.X_U4_U1.N1)    4.2102               

(X_U1.X_U4_U1.N2)    2.9095           (X_U1.X_U4_U1.N3)    2.4513               

(X_U1.X_U4_U1.N4)    2.4513           (X_U1.X_U5_U1.N1)    4.2012               

(X_U1.X_U5_U1.N2)    2.9010           (X_U1.X_U5_U1.N3)    2.4563               

(X_U1.X_U5_U1.N4)    2.4563           (X_U1.X_U6_U1.N1)    4.2019               

(X_U1.X_U6_U1.N2)    2.9016           (X_U1.X_U6_U1.N3)    2.4559               

(X_U1.X_U6_U1.N4)    2.4559           (X_U1.X_U7_U1.N1)    4.2015               

(X_U1.X_U7_U1.N2)    2.9013           (X_U1.X_U7_U1.N3)    2.4562               

(X_U1.X_U7_U1.N4)    2.4562           (X_U1.X_U8_U1.N1)    4.2004               

(X_U1.X_U8_U1.N2)    2.9003           (X_U1.X_U8_U1.N3)    2.4567               

(X_U1.X_U8_U1.N4)    2.4567           (X_U1.U10_N345775)    5.0000              

(X_U1.U10_N345841) 10.02E-12          (X_U1.U10_N349504)    4.1296              

(X_U1.U11_N345775)    5.0000          (X_U1.U11_N345841)    0.0000              

(X_U1.U11_N349504)    0.0000          (X_U1.U12_N345775)    5.0000              

(X_U1.U12_N345841)    0.0000          (X_U1.U12_N349504)    0.0000              

(X_U1.U13_N345775)    5.0000          (X_U1.U13_N345841)    4.0253              

(X_U1.U13_N349504)   10.0000          (X_U1.U14_N345775)    5.0000              

(X_U1.U14_N345841)    0.0000          (X_U1.U14_N349504)    0.0000              

(X_U1.U15_N345775)    5.0000          (X_U1.U15_N345841)    0.0000              

(X_U1.U15_N349504)    0.0000          (X_U1.U16_N345775)    5.0000              

(X_U1.U16_N345841)    0.0000          (X_U1.U16_N349504)    0.0000              

(X_U1.U17_N345775)    5.0000          (X_U1.U17_N345841)    0.0000              

(X_U1.U17_N349504)    0.0000          (X_U1.CNTRL1_DELAY)    1.0000             

(X_U1.CNTRL2_DELAY)    0.0000         (X_U1.CNTRL3_DELAY)    0.0000             

(X_U1.CNTRL4_DELAY)    0.0000         (X_U1.CNTRL5_DELAY)    0.0000             

(X_U1.CNTRL6_DELAY)    0.0000         (X_U1.CNTRL7_DELAY)    0.0000             

(X_U1.CNTRL8_DELAY)    0.0000         (X_U1.X_U1_U1.NVCC)    5.0000             

(X_U1.X_U2_U1.NVCC)    5.0000         (X_U1.X_U3_U1.NVCC)    5.0000             

(X_U1.X_U4_U1.NVCC)    5.0000         (X_U1.X_U5_U1.NVCC)    5.0000             

(X_U1.X_U6_U1.NVCC)    5.0000         (X_U1.X_U7_U1.NVCC)    5.0000             

(X_U1.X_U8_U1.NVCC)    5.0000         (X_U1.X_U1_U1.NA0_1)    1.5927            

(X_U1.X_U1_U1.NA0_2)    3.5270        (X_U1.X_U1_U1.NA0_3)    6.4755            

(X_U1.X_U1_U1.NA1_1)     .3341        (X_U1.X_U1_U1.NA1_2)   -1.3360            

(X_U1.X_U1_U1.NA1_3)   -1.5676        (X_U1.X_U1_U1.NA2_1)     .0983            

(X_U1.X_U1_U1.NA2_2)     .3135        (X_U1.X_U1_U1.NA2_3)     .1312            

(X_U1.X_U2_U1.NA0_1)    1.5927        (X_U1.X_U2_U1.NA0_2)    3.5270            

(X_U1.X_U2_U1.NA0_3)    6.4755        (X_U1.X_U2_U1.NA1_1)     .3341            

(X_U1.X_U2_U1.NA1_2)   -1.3360        (X_U1.X_U2_U1.NA1_3)   -1.5676            

(X_U1.X_U2_U1.NA2_1)     .0983        (X_U1.X_U2_U1.NA2_2)     .3135            

(X_U1.X_U2_U1.NA2_3)     .1312        (X_U1.X_U3_U1.NA0_1)    1.5927            

(X_U1.X_U3_U1.NA0_2)    3.5270        (X_U1.X_U3_U1.NA0_3)    6.4755            

(X_U1.X_U3_U1.NA1_1)     .3341        (X_U1.X_U3_U1.NA1_2)   -1.3360            

(X_U1.X_U3_U1.NA1_3)   -1.5676        (X_U1.X_U3_U1.NA2_1)     .0983            

(X_U1.X_U3_U1.NA2_2)     .3135        (X_U1.X_U3_U1.NA2_3)     .1312            

(X_U1.X_U4_U1.NA0_1)    1.5927        (X_U1.X_U4_U1.NA0_2)    3.5270            

(X_U1.X_U4_U1.NA0_3)    6.4755        (X_U1.X_U4_U1.NA1_1)     .3341            

(X_U1.X_U4_U1.NA1_2)   -1.3360        (X_U1.X_U4_U1.NA1_3)   -1.5676            

(X_U1.X_U4_U1.NA2_1)     .0983        (X_U1.X_U4_U1.NA2_2)     .3135            

(X_U1.X_U4_U1.NA2_3)     .1312        (X_U1.X_U5_U1.NA0_1)    1.5927            

(X_U1.X_U5_U1.NA0_2)    3.5270        (X_U1.X_U5_U1.NA0_3)    6.4755            

(X_U1.X_U5_U1.NA1_1)     .3341        (X_U1.X_U5_U1.NA1_2)   -1.3360            

(X_U1.X_U5_U1.NA1_3)   -1.5676        (X_U1.X_U5_U1.NA2_1)     .0983            

(X_U1.X_U5_U1.NA2_2)     .3135        (X_U1.X_U5_U1.NA2_3)     .1312            

(X_U1.X_U6_U1.NA0_1)    1.5927        (X_U1.X_U6_U1.NA0_2)    3.5270            

(X_U1.X_U6_U1.NA0_3)    6.4755        (X_U1.X_U6_U1.NA1_1)     .3341            

(X_U1.X_U6_U1.NA1_2)   -1.3360        (X_U1.X_U6_U1.NA1_3)   -1.5676            

(X_U1.X_U6_U1.NA2_1)     .0983        (X_U1.X_U6_U1.NA2_2)     .3135            

(X_U1.X_U6_U1.NA2_3)     .1312        (X_U1.X_U7_U1.NA0_1)    1.5927            

(X_U1.X_U7_U1.NA0_2)    3.5270        (X_U1.X_U7_U1.NA0_3)    6.4755            

(X_U1.X_U7_U1.NA1_1)     .3341        (X_U1.X_U7_U1.NA1_2)   -1.3360            

(X_U1.X_U7_U1.NA1_3)   -1.5676        (X_U1.X_U7_U1.NA2_1)     .0983            

(X_U1.X_U7_U1.NA2_2)     .3135        (X_U1.X_U7_U1.NA2_3)     .1312            

(X_U1.X_U8_U1.NA0_1)    1.5927        (X_U1.X_U8_U1.NA0_2)    3.5270            

(X_U1.X_U8_U1.NA0_3)    6.4755        (X_U1.X_U8_U1.NA1_1)     .3341            

(X_U1.X_U8_U1.NA1_2)   -1.3360        (X_U1.X_U8_U1.NA1_3)   -1.5676            

(X_U1.X_U8_U1.NA2_1)     .0983        (X_U1.X_U8_U1.NA2_2)     .3135            

(X_U1.X_U8_U1.NA2_3)     .1312        


**** Interrupt ****
**** Param: RELTOL = 0.001
**** Param: ABSTOL = 1e-012
**** Param: VNTOL = 1e-006
**** Param: GMIN = 1e-012
**** Param: TSTOP = 0.00015
**** Param: TMAX = 0
**** Param: ITL1 = 150
**** Param: ITL2 = 20
**** Param: ITL4 = 10

 **** Published Runtime Parameters *****************************
                                                               
                                       ABSTOL =      1.0000E-12
                                         GMIN =      1.0000E-12
                                         ITL1 =      1.5000E+02
                                         ITL2 =      2.0000E+01
                                         ITL4 =      1.0000E+01
                                     R_R1.tc1 =      0.0000E+00
                                     R_R1.tc2 =      0.0000E+00
                                   R_R1.value =      5.0000E+01
                                     R_R2.tc1 =      0.0000E+00
                                     R_R2.tc2 =      0.0000E+00
                                   R_R2.value =      5.0000E+01
                                     R_R3.tc1 =      0.0000E+00
                                     R_R3.tc2 =      0.0000E+00
                                   R_R3.value =      5.0000E+01
                                     R_R4.tc1 =      0.0000E+00
                                     R_R4.tc2 =      0.0000E+00
                                   R_R4.value =      5.0000E+01
                                     R_R5.tc1 =      0.0000E+00
                                     R_R5.tc2 =      0.0000E+00
                                   R_R5.value =      5.0000E+01
                                     R_R6.tc1 =      0.0000E+00
                                     R_R6.tc2 =      0.0000E+00
                                   R_R6.value =      5.0000E+01
                                     R_R7.tc1 =      0.0000E+00
                                     R_R7.tc2 =      0.0000E+00
                                   R_R7.value =      5.0000E+01
                                     R_R8.tc1 =      0.0000E+00
                                     R_R8.tc2 =      0.0000E+00
                                   R_R8.value =      5.0000E+01
                                     R_R9.tc1 =      0.0000E+00
                                     R_R9.tc2 =      0.0000E+00
                                   R_R9.value =      5.0000E+01
                                       RELTOL =      1.0000E-03
                                       RUNFOR =      0.0000E+00
                                         TMAX =      0.0000E+00
                                        TSTOP =      1.5000E-04
                                      V_V1.ac =      0.0000E+00
                                 V_V1.acphase =      0.0000E+00
                                      V_V1.dc =      5.0000E+00
                                     V_V10.ac =      0.0000E+00
                                V_V10.acphase =      0.0000E+00
                                     V_V10.dc =      2.0000E+00
                                     V_V11.ac =      0.0000E+00
                                V_V11.acphase =      0.0000E+00
                                     V_V11.dc =      0.0000E+00
                                     V_V12.ac =      0.0000E+00
                                V_V12.acphase =      0.0000E+00
                                     V_V12.dc =      0.0000E+00
                                     V_V13.ac =      0.0000E+00
                                V_V13.acphase =      0.0000E+00
                                     V_V13.dc =      0.0000E+00
                                      V_V2.ac =      0.0000E+00
                                 V_V2.acphase =      0.0000E+00
                                      V_V2.dc =      5.0000E+00
                                      V_V3.ac =      0.0000E+00
                                 V_V3.acphase =      0.0000E+00
                                      V_V3.dc =      5.0000E+00
                                      V_V4.ac =      0.0000E+00
                                 V_V4.acphase =      0.0000E+00
                                      V_V4.dc =      5.0000E+00
                                      V_V5.ac =      0.0000E+00
                                 V_V5.acphase =      0.0000E+00
                                      V_V5.dc =      5.0000E+00
                                      V_V6.ac =      0.0000E+00
                                 V_V6.acphase =      0.0000E+00
                                      V_V6.dc =      5.0000E+00
                                      V_V7.ac =      0.0000E+00
                                 V_V7.acphase =      0.0000E+00
                                      V_V7.dc =      5.0000E+00
                                      V_V8.ac =      0.0000E+00
                                 V_V8.acphase =      0.0000E+00
                                      V_V8.dc =      5.0000E+00
                                      V_V9.ac =      0.0000E+00
                                 V_V9.acphase =      0.0000E+00
                                      V_V9.dc =      5.0000E+00
                                        VNTOL =      1.0000E-06
                             X_U1.C_U10_C3.ic =      0.0000E+00
                          X_U1.C_U10_C3.value =      9.0000E-09
                             X_U1.C_U11_C3.ic =      0.0000E+00
                          X_U1.C_U11_C3.value =      9.0000E-09
                             X_U1.C_U12_C3.ic =      0.0000E+00
                          X_U1.C_U12_C3.value =      9.0000E-09
                             X_U1.C_U13_C3.ic =      0.0000E+00
                          X_U1.C_U13_C3.value =      9.0000E-09
                             X_U1.C_U14_C3.ic =      0.0000E+00
                          X_U1.C_U14_C3.value =      9.0000E-09
                             X_U1.C_U15_C3.ic =      0.0000E+00
                          X_U1.C_U15_C3.value =      9.0000E-09
                             X_U1.C_U16_C3.ic =      0.0000E+00
                          X_U1.C_U16_C3.value =      9.0000E-09
                             X_U1.C_U17_C3.ic =      0.0000E+00
                          X_U1.C_U17_C3.value =      9.0000E-09
                              X_U1.C_U1_C1.ic =      0.0000E+00
                           X_U1.C_U1_C1.value =      4.7000E-12
                              X_U1.C_U1_C2.ic =      0.0000E+00
                           X_U1.C_U1_C2.value =      2.0000E-12
                              X_U1.C_U1_C3.ic =      0.0000E+00
                           X_U1.C_U1_C3.value =      2.0000E-12
                              X_U1.C_U1_C4.ic =      0.0000E+00
                           X_U1.C_U1_C4.value =      1.0000E-11
                              X_U1.C_U1_C5.ic =      0.0000E+00
                           X_U1.C_U1_C5.value =      1.0000E-11
                              X_U1.C_U1_C6.ic =      0.0000E+00
                           X_U1.C_U1_C6.value =      5.0600E-12
                              X_U1.C_U1_C7.ic =      0.0000E+00
                           X_U1.C_U1_C7.value =      2.0000E-15
                              X_U1.C_U1_C8.ic =      0.0000E+00
                           X_U1.C_U1_C8.value =      2.0000E-15
                              X_U1.C_U2_C1.ic =      0.0000E+00
                           X_U1.C_U2_C1.value =      4.7000E-12
                              X_U1.C_U2_C2.ic =      0.0000E+00
                           X_U1.C_U2_C2.value =      2.0000E-12
                              X_U1.C_U2_C3.ic =      0.0000E+00
                           X_U1.C_U2_C3.value =      2.0000E-12
                              X_U1.C_U2_C4.ic =      0.0000E+00
                           X_U1.C_U2_C4.value =      1.0000E-11
                              X_U1.C_U2_C5.ic =      0.0000E+00
                           X_U1.C_U2_C5.value =      1.0000E-11
                              X_U1.C_U2_C6.ic =      0.0000E+00
                           X_U1.C_U2_C6.value =      5.0600E-12
                              X_U1.C_U2_C7.ic =      0.0000E+00
                           X_U1.C_U2_C7.value =      2.0000E-15
                              X_U1.C_U2_C8.ic =      0.0000E+00
                           X_U1.C_U2_C8.value =      2.0000E-15
                              X_U1.C_U3_C1.ic =      0.0000E+00
                           X_U1.C_U3_C1.value =      4.7000E-12
                              X_U1.C_U3_C2.ic =      0.0000E+00
                           X_U1.C_U3_C2.value =      2.0000E-12
                              X_U1.C_U3_C3.ic =      0.0000E+00
                           X_U1.C_U3_C3.value =      2.0000E-12
                              X_U1.C_U3_C4.ic =      0.0000E+00
                           X_U1.C_U3_C4.value =      1.0000E-11
                              X_U1.C_U3_C5.ic =      0.0000E+00
                           X_U1.C_U3_C5.value =      1.0000E-11
                              X_U1.C_U3_C6.ic =      0.0000E+00
                           X_U1.C_U3_C6.value =      5.0600E-12
                              X_U1.C_U3_C7.ic =      0.0000E+00
                           X_U1.C_U3_C7.value =      2.0000E-15
                              X_U1.C_U3_C8.ic =      0.0000E+00
                           X_U1.C_U3_C8.value =      2.0000E-15
                              X_U1.C_U4_C1.ic =      0.0000E+00
                           X_U1.C_U4_C1.value =      4.7000E-12
                              X_U1.C_U4_C2.ic =      0.0000E+00
                           X_U1.C_U4_C2.value =      2.0000E-12
                              X_U1.C_U4_C3.ic =      0.0000E+00
                           X_U1.C_U4_C3.value =      2.0000E-12
                              X_U1.C_U4_C4.ic =      0.0000E+00
                           X_U1.C_U4_C4.value =      1.0000E-11
                              X_U1.C_U4_C5.ic =      0.0000E+00
                           X_U1.C_U4_C5.value =      1.0000E-11
                              X_U1.C_U4_C6.ic =      0.0000E+00
                           X_U1.C_U4_C6.value =      5.0600E-12
                              X_U1.C_U4_C7.ic =      0.0000E+00
                           X_U1.C_U4_C7.value =      2.0000E-15
                              X_U1.C_U4_C8.ic =      0.0000E+00
                           X_U1.C_U4_C8.value =      2.0000E-15
                              X_U1.C_U5_C1.ic =      0.0000E+00
                           X_U1.C_U5_C1.value =      4.7000E-12
                              X_U1.C_U5_C2.ic =      0.0000E+00
                           X_U1.C_U5_C2.value =      2.0000E-12
                              X_U1.C_U5_C3.ic =      0.0000E+00
                           X_U1.C_U5_C3.value =      2.0000E-12
                              X_U1.C_U5_C4.ic =      0.0000E+00
                           X_U1.C_U5_C4.value =      1.0000E-11
                              X_U1.C_U5_C5.ic =      0.0000E+00
                           X_U1.C_U5_C5.value =      1.0000E-11
                              X_U1.C_U5_C6.ic =      0.0000E+00
                           X_U1.C_U5_C6.value =      5.0600E-12
                              X_U1.C_U5_C7.ic =      0.0000E+00
                           X_U1.C_U5_C7.value =      2.0000E-15
                              X_U1.C_U5_C8.ic =      0.0000E+00
                           X_U1.C_U5_C8.value =      2.0000E-15
                              X_U1.C_U6_C1.ic =      0.0000E+00
                           X_U1.C_U6_C1.value =      4.7000E-12
                              X_U1.C_U6_C2.ic =      0.0000E+00
                           X_U1.C_U6_C2.value =      2.0000E-12
                              X_U1.C_U6_C3.ic =      0.0000E+00
                           X_U1.C_U6_C3.value =      2.0000E-12
                              X_U1.C_U6_C4.ic =      0.0000E+00
                           X_U1.C_U6_C4.value =      1.0000E-11
                              X_U1.C_U6_C5.ic =      0.0000E+00
                           X_U1.C_U6_C5.value =      1.0000E-11
                              X_U1.C_U6_C6.ic =      0.0000E+00
                           X_U1.C_U6_C6.value =      5.0600E-12
                              X_U1.C_U6_C7.ic =      0.0000E+00
                           X_U1.C_U6_C7.value =      2.0000E-15
                              X_U1.C_U6_C8.ic =      0.0000E+00
                           X_U1.C_U6_C8.value =      2.0000E-15
                              X_U1.C_U7_C1.ic =      0.0000E+00
                           X_U1.C_U7_C1.value =      4.7000E-12
                              X_U1.C_U7_C2.ic =      0.0000E+00
                           X_U1.C_U7_C2.value =      2.0000E-12
                              X_U1.C_U7_C3.ic =      0.0000E+00
                           X_U1.C_U7_C3.value =      2.0000E-12
                              X_U1.C_U7_C4.ic =      0.0000E+00
                           X_U1.C_U7_C4.value =      1.0000E-11
                              X_U1.C_U7_C5.ic =      0.0000E+00
                           X_U1.C_U7_C5.value =      1.0000E-11
                              X_U1.C_U7_C6.ic =      0.0000E+00
                           X_U1.C_U7_C6.value =      5.0600E-12
                              X_U1.C_U7_C7.ic =      0.0000E+00
                           X_U1.C_U7_C7.value =      2.0000E-15
                              X_U1.C_U7_C8.ic =      0.0000E+00
                           X_U1.C_U7_C8.value =      2.0000E-15
                              X_U1.C_U8_C1.ic =      0.0000E+00
                           X_U1.C_U8_C1.value =      4.7000E-12
                              X_U1.C_U8_C2.ic =      0.0000E+00
                           X_U1.C_U8_C2.value =      2.0000E-12
                              X_U1.C_U8_C3.ic =      0.0000E+00
                           X_U1.C_U8_C3.value =      2.0000E-12
                              X_U1.C_U8_C4.ic =      0.0000E+00
                           X_U1.C_U8_C4.value =      1.0000E-11
                              X_U1.C_U8_C5.ic =      0.0000E+00
                           X_U1.C_U8_C5.value =      1.0000E-11
                              X_U1.C_U8_C6.ic =      0.0000E+00
                           X_U1.C_U8_C6.value =      5.0600E-12
                              X_U1.C_U8_C7.ic =      0.0000E+00
                           X_U1.C_U8_C7.value =      2.0000E-15
                              X_U1.C_U8_C8.ic =      0.0000E+00
                           X_U1.C_U8_C8.value =      2.0000E-15
                           X_U1.D_U10_D2.area =      1.0000E+00
                             X_U1.D_U10_D2.ic =      0.0000E+00
                           X_U1.D_U10_D3.area =      1.0000E+00
                             X_U1.D_U10_D3.ic =      0.0000E+00
                           X_U1.D_U11_D2.area =      1.0000E+00
                             X_U1.D_U11_D2.ic =      0.0000E+00
                           X_U1.D_U11_D3.area =      1.0000E+00
                             X_U1.D_U11_D3.ic =      0.0000E+00
                           X_U1.D_U12_D2.area =      1.0000E+00
                             X_U1.D_U12_D2.ic =      0.0000E+00
                           X_U1.D_U12_D3.area =      1.0000E+00
                             X_U1.D_U12_D3.ic =      0.0000E+00
                           X_U1.D_U13_D2.area =      1.0000E+00
                             X_U1.D_U13_D2.ic =      0.0000E+00
                           X_U1.D_U13_D3.area =      1.0000E+00
                             X_U1.D_U13_D3.ic =      0.0000E+00
                           X_U1.D_U14_D2.area =      1.0000E+00
                             X_U1.D_U14_D2.ic =      0.0000E+00
                           X_U1.D_U14_D3.area =      1.0000E+00
                             X_U1.D_U14_D3.ic =      0.0000E+00
                           X_U1.D_U15_D2.area =      1.0000E+00
                             X_U1.D_U15_D2.ic =      0.0000E+00
                           X_U1.D_U15_D3.area =      1.0000E+00
                             X_U1.D_U15_D3.ic =      0.0000E+00
                           X_U1.D_U16_D2.area =      1.0000E+00
                             X_U1.D_U16_D2.ic =      0.0000E+00
                           X_U1.D_U16_D3.area =      1.0000E+00
                             X_U1.D_U16_D3.ic =      0.0000E+00
                           X_U1.D_U17_D2.area =      1.0000E+00
                             X_U1.D_U17_D2.ic =      0.0000E+00
                           X_U1.D_U17_D3.area =      1.0000E+00
                             X_U1.D_U17_D3.ic =      0.0000E+00
                           X_U1.E_U10_E2.gain =      1.0000E+01
                           X_U1.E_U11_E2.gain =      1.0000E+01
                           X_U1.E_U12_E2.gain =      1.0000E+01
                           X_U1.E_U13_E2.gain =      1.0000E+01
                           X_U1.E_U14_E2.gain =      1.0000E+01
                           X_U1.E_U15_E2.gain =      1.0000E+01
                           X_U1.E_U16_E2.gain =      1.0000E+01
                           X_U1.E_U17_E2.gain =      1.0000E+01
                              X_U1.L_U1_L1.ic =      0.0000E+00
                         X_U1.L_U1_L1.lgap.ic =      0.0000E+00
                      X_U1.L_U1_L1.lgap.value =      0.0000E+00
                           X_U1.L_U1_L1.value =      2.0000E-08
                              X_U1.L_U1_L2.ic =      0.0000E+00
                         X_U1.L_U1_L2.lgap.ic =      0.0000E+00
                      X_U1.L_U1_L2.lgap.value =      0.0000E+00
                           X_U1.L_U1_L2.value =      2.0000E-08
                              X_U1.L_U2_L1.ic =      0.0000E+00
                         X_U1.L_U2_L1.lgap.ic =      0.0000E+00
                      X_U1.L_U2_L1.lgap.value =      0.0000E+00
                           X_U1.L_U2_L1.value =      2.0000E-08
                              X_U1.L_U2_L2.ic =      0.0000E+00
                         X_U1.L_U2_L2.lgap.ic =      0.0000E+00
                      X_U1.L_U2_L2.lgap.value =      0.0000E+00
                           X_U1.L_U2_L2.value =      2.0000E-08
                              X_U1.L_U3_L1.ic =      0.0000E+00
                         X_U1.L_U3_L1.lgap.ic =      0.0000E+00
                      X_U1.L_U3_L1.lgap.value =      0.0000E+00
                           X_U1.L_U3_L1.value =      2.0000E-08
                              X_U1.L_U3_L2.ic =      0.0000E+00
                         X_U1.L_U3_L2.lgap.ic =      0.0000E+00
                      X_U1.L_U3_L2.lgap.value =      0.0000E+00
                           X_U1.L_U3_L2.value =      2.0000E-08
                              X_U1.L_U4_L1.ic =      0.0000E+00
                         X_U1.L_U4_L1.lgap.ic =      0.0000E+00
                      X_U1.L_U4_L1.lgap.value =      0.0000E+00
                           X_U1.L_U4_L1.value =      2.0000E-08
                              X_U1.L_U4_L2.ic =      0.0000E+00
                         X_U1.L_U4_L2.lgap.ic =      0.0000E+00
                      X_U1.L_U4_L2.lgap.value =      0.0000E+00
                           X_U1.L_U4_L2.value =      2.0000E-08
                              X_U1.L_U5_L1.ic =      0.0000E+00
                         X_U1.L_U5_L1.lgap.ic =      0.0000E+00
                      X_U1.L_U5_L1.lgap.value =      0.0000E+00
                           X_U1.L_U5_L1.value =      2.0000E-08
                              X_U1.L_U5_L2.ic =      0.0000E+00
                         X_U1.L_U5_L2.lgap.ic =      0.0000E+00
                      X_U1.L_U5_L2.lgap.value =      0.0000E+00
                           X_U1.L_U5_L2.value =      2.0000E-08
                              X_U1.L_U6_L1.ic =      0.0000E+00
                         X_U1.L_U6_L1.lgap.ic =      0.0000E+00
                      X_U1.L_U6_L1.lgap.value =      0.0000E+00
                           X_U1.L_U6_L1.value =      2.0000E-08
                              X_U1.L_U6_L2.ic =      0.0000E+00
                         X_U1.L_U6_L2.lgap.ic =      0.0000E+00
                      X_U1.L_U6_L2.lgap.value =      0.0000E+00
                           X_U1.L_U6_L2.value =      2.0000E-08
                              X_U1.L_U7_L1.ic =      0.0000E+00
                         X_U1.L_U7_L1.lgap.ic =      0.0000E+00
                      X_U1.L_U7_L1.lgap.value =      0.0000E+00
                           X_U1.L_U7_L1.value =      2.0000E-08
                              X_U1.L_U7_L2.ic =      0.0000E+00
                         X_U1.L_U7_L2.lgap.ic =      0.0000E+00
                      X_U1.L_U7_L2.lgap.value =      0.0000E+00
                           X_U1.L_U7_L2.value =      2.0000E-08
                              X_U1.L_U8_L1.ic =      0.0000E+00
                         X_U1.L_U8_L1.lgap.ic =      0.0000E+00
                      X_U1.L_U8_L1.lgap.value =      0.0000E+00
                           X_U1.L_U8_L1.value =      2.0000E-08
                              X_U1.L_U8_L2.ic =      0.0000E+00
                         X_U1.L_U8_L2.lgap.ic =      0.0000E+00
                      X_U1.L_U8_L2.lgap.value =      0.0000E+00
                           X_U1.L_U8_L2.value =      2.0000E-08
                                X_U1.R_R1.tc1 =      0.0000E+00
                                X_U1.R_R1.tc2 =      0.0000E+00
                              X_U1.R_R1.value =      1.0000E+06
                            X_U1.R_U10_R4.tc1 =      0.0000E+00
                            X_U1.R_U10_R4.tc2 =      0.0000E+00
                          X_U1.R_U10_R4.value =      2.0000E+00
                            X_U1.R_U10_R5.tc1 =      0.0000E+00
                            X_U1.R_U10_R5.tc2 =      0.0000E+00
                          X_U1.R_U10_R5.value =      1.0000E+00
                            X_U1.R_U11_R4.tc1 =      0.0000E+00
                            X_U1.R_U11_R4.tc2 =      0.0000E+00
                          X_U1.R_U11_R4.value =      2.0000E+00
                            X_U1.R_U11_R5.tc1 =      0.0000E+00
                            X_U1.R_U11_R5.tc2 =      0.0000E+00
                          X_U1.R_U11_R5.value =      1.0000E+00
                            X_U1.R_U12_R4.tc1 =      0.0000E+00
                            X_U1.R_U12_R4.tc2 =      0.0000E+00
                          X_U1.R_U12_R4.value =      2.0000E+00
                            X_U1.R_U12_R5.tc1 =      0.0000E+00
                            X_U1.R_U12_R5.tc2 =      0.0000E+00
                          X_U1.R_U12_R5.value =      1.0000E+00
                            X_U1.R_U13_R4.tc1 =      0.0000E+00
                            X_U1.R_U13_R4.tc2 =      0.0000E+00
                          X_U1.R_U13_R4.value =      2.0000E+00
                            X_U1.R_U13_R5.tc1 =      0.0000E+00
                            X_U1.R_U13_R5.tc2 =      0.0000E+00
                          X_U1.R_U13_R5.value =      1.0000E+00
                            X_U1.R_U14_R4.tc1 =      0.0000E+00
                            X_U1.R_U14_R4.tc2 =      0.0000E+00
                          X_U1.R_U14_R4.value =      2.0000E+00
                            X_U1.R_U14_R5.tc1 =      0.0000E+00
                            X_U1.R_U14_R5.tc2 =      0.0000E+00
                          X_U1.R_U14_R5.value =      1.0000E+00
                            X_U1.R_U15_R4.tc1 =      0.0000E+00
                            X_U1.R_U15_R4.tc2 =      0.0000E+00
                          X_U1.R_U15_R4.value =      2.0000E+00
                            X_U1.R_U15_R5.tc1 =      0.0000E+00
                            X_U1.R_U15_R5.tc2 =      0.0000E+00
                          X_U1.R_U15_R5.value =      1.0000E+00
                            X_U1.R_U16_R4.tc1 =      0.0000E+00
                            X_U1.R_U16_R4.tc2 =      0.0000E+00
                          X_U1.R_U16_R4.value =      2.0000E+00
                            X_U1.R_U16_R5.tc1 =      0.0000E+00
                            X_U1.R_U16_R5.tc2 =      0.0000E+00
                          X_U1.R_U16_R5.value =      1.0000E+00
                            X_U1.R_U17_R4.tc1 =      0.0000E+00
                            X_U1.R_U17_R4.tc2 =      0.0000E+00
                          X_U1.R_U17_R4.value =      2.0000E+00
                            X_U1.R_U17_R5.tc1 =      0.0000E+00
                            X_U1.R_U17_R5.tc2 =      0.0000E+00
                          X_U1.R_U17_R5.value =      1.0000E+00
                             X_U1.R_U1_R1.tc1 =      0.0000E+00
                             X_U1.R_U1_R1.tc2 =      0.0000E+00
                           X_U1.R_U1_R1.value =      1.0000E+07
                             X_U1.R_U1_R2.tc1 =      0.0000E+00
                             X_U1.R_U1_R2.tc2 =      0.0000E+00
                           X_U1.R_U1_R2.value =      5.0000E+00
                             X_U1.R_U1_R3.tc1 =      0.0000E+00
                             X_U1.R_U1_R3.tc2 =      0.0000E+00
                           X_U1.R_U1_R3.value =      5.0000E+00
                             X_U1.R_U2_R1.tc1 =      0.0000E+00
                             X_U1.R_U2_R1.tc2 =      0.0000E+00
                           X_U1.R_U2_R1.value =      1.0000E+07
                             X_U1.R_U2_R2.tc1 =      0.0000E+00
                             X_U1.R_U2_R2.tc2 =      0.0000E+00
                           X_U1.R_U2_R2.value =      5.0000E+00
                             X_U1.R_U2_R3.tc1 =      0.0000E+00
                             X_U1.R_U2_R3.tc2 =      0.0000E+00
                           X_U1.R_U2_R3.value =      5.0000E+00
                             X_U1.R_U3_R1.tc1 =      0.0000E+00
                             X_U1.R_U3_R1.tc2 =      0.0000E+00
                           X_U1.R_U3_R1.value =      1.0000E+07
                             X_U1.R_U3_R2.tc1 =      0.0000E+00
                             X_U1.R_U3_R2.tc2 =      0.0000E+00
                           X_U1.R_U3_R2.value =      5.0000E+00
                             X_U1.R_U3_R3.tc1 =      0.0000E+00
                             X_U1.R_U3_R3.tc2 =      0.0000E+00
                           X_U1.R_U3_R3.value =      5.0000E+00
                             X_U1.R_U4_R1.tc1 =      0.0000E+00
                             X_U1.R_U4_R1.tc2 =      0.0000E+00
                           X_U1.R_U4_R1.value =      1.0000E+07
                             X_U1.R_U4_R2.tc1 =      0.0000E+00
                             X_U1.R_U4_R2.tc2 =      0.0000E+00
                           X_U1.R_U4_R2.value =      5.0000E+00
                             X_U1.R_U4_R3.tc1 =      0.0000E+00
                             X_U1.R_U4_R3.tc2 =      0.0000E+00
                           X_U1.R_U4_R3.value =      5.0000E+00
                             X_U1.R_U5_R1.tc1 =      0.0000E+00
                             X_U1.R_U5_R1.tc2 =      0.0000E+00
                           X_U1.R_U5_R1.value =      1.0000E+07
                             X_U1.R_U5_R2.tc1 =      0.0000E+00
                             X_U1.R_U5_R2.tc2 =      0.0000E+00
                           X_U1.R_U5_R2.value =      5.0000E+00
                             X_U1.R_U5_R3.tc1 =      0.0000E+00
                             X_U1.R_U5_R3.tc2 =      0.0000E+00
                           X_U1.R_U5_R3.value =      5.0000E+00
                             X_U1.R_U6_R1.tc1 =      0.0000E+00
                             X_U1.R_U6_R1.tc2 =      0.0000E+00
                           X_U1.R_U6_R1.value =      1.0000E+07
                             X_U1.R_U6_R2.tc1 =      0.0000E+00
                             X_U1.R_U6_R2.tc2 =      0.0000E+00
                           X_U1.R_U6_R2.value =      5.0000E+00
                             X_U1.R_U6_R3.tc1 =      0.0000E+00
                             X_U1.R_U6_R3.tc2 =      0.0000E+00
                           X_U1.R_U6_R3.value =      5.0000E+00
                             X_U1.R_U7_R1.tc1 =      0.0000E+00
                             X_U1.R_U7_R1.tc2 =      0.0000E+00
                           X_U1.R_U7_R1.value =      1.0000E+07
                             X_U1.R_U7_R2.tc1 =      0.0000E+00
                             X_U1.R_U7_R2.tc2 =      0.0000E+00
                           X_U1.R_U7_R2.value =      5.0000E+00
                             X_U1.R_U7_R3.tc1 =      0.0000E+00
                             X_U1.R_U7_R3.tc2 =      0.0000E+00
                           X_U1.R_U7_R3.value =      5.0000E+00
                             X_U1.R_U8_R1.tc1 =      0.0000E+00
                             X_U1.R_U8_R1.tc2 =      0.0000E+00
                           X_U1.R_U8_R1.value =      1.0000E+07
                             X_U1.R_U8_R2.tc1 =      0.0000E+00
                             X_U1.R_U8_R2.tc2 =      0.0000E+00
                           X_U1.R_U8_R2.value =      5.0000E+00
                             X_U1.R_U8_R3.tc1 =      0.0000E+00
                             X_U1.R_U8_R3.tc2 =      0.0000E+00
                           X_U1.R_U8_R3.value =      5.0000E+00
                             X_U1.V_U10_V1.ac =      0.0000E+00
                        X_U1.V_U10_V1.acphase =      0.0000E+00
                             X_U1.V_U10_V1.dc =      5.0000E+00
                             X_U1.V_U11_V1.ac =      0.0000E+00
                        X_U1.V_U11_V1.acphase =      0.0000E+00
                             X_U1.V_U11_V1.dc =      5.0000E+00
                             X_U1.V_U12_V1.ac =      0.0000E+00
                        X_U1.V_U12_V1.acphase =      0.0000E+00
                             X_U1.V_U12_V1.dc =      5.0000E+00
                             X_U1.V_U13_V1.ac =      0.0000E+00
                        X_U1.V_U13_V1.acphase =      0.0000E+00
                             X_U1.V_U13_V1.dc =      5.0000E+00
                             X_U1.V_U14_V1.ac =      0.0000E+00
                        X_U1.V_U14_V1.acphase =      0.0000E+00
                             X_U1.V_U14_V1.dc =      5.0000E+00
                             X_U1.V_U15_V1.ac =      0.0000E+00
                        X_U1.V_U15_V1.acphase =      0.0000E+00
                             X_U1.V_U15_V1.dc =      5.0000E+00
                             X_U1.V_U16_V1.ac =      0.0000E+00
                        X_U1.V_U16_V1.acphase =      0.0000E+00
                             X_U1.V_U16_V1.dc =      5.0000E+00
                             X_U1.V_U17_V1.ac =      0.0000E+00
                        X_U1.V_U17_V1.acphase =      0.0000E+00
                             X_U1.V_U17_V1.dc =      5.0000E+00
                            X_U1.X_U10_U9.VHI =      1.0000E+00
                           X_U1.X_U10_U9.VLOW =      0.0000E+00
                            X_U1.X_U11_U9.VHI =      1.0000E+00
                           X_U1.X_U11_U9.VLOW =      0.0000E+00
                            X_U1.X_U12_U9.VHI =      1.0000E+00
                           X_U1.X_U12_U9.VLOW =      0.0000E+00
                            X_U1.X_U13_U9.VHI =      1.0000E+00
                           X_U1.X_U13_U9.VLOW =      0.0000E+00
                            X_U1.X_U14_U9.VHI =      1.0000E+00
                           X_U1.X_U14_U9.VLOW =      0.0000E+00
                            X_U1.X_U15_U9.VHI =      1.0000E+00
                           X_U1.X_U15_U9.VLOW =      0.0000E+00
                            X_U1.X_U16_U9.VHI =      1.0000E+00
                           X_U1.X_U16_U9.VLOW =      0.0000E+00
                            X_U1.X_U17_U9.VHI =      1.0000E+00
                           X_U1.X_U17_U9.VLOW =      0.0000E+00
                        X_U1.X_U19.I_LEAK_OFF =      1.0000E-11
                    X_U1.X_U1_S1.RS_U1_S1.tc1 =      0.0000E+00
                    X_U1.X_U1_S1.RS_U1_S1.tc2 =      0.0000E+00
                  X_U1.X_U1_S1.RS_U1_S1.value =      1.0000E+09
                    X_U1.X_U1_S2.RS_U1_S2.tc1 =      0.0000E+00
                    X_U1.X_U1_S2.RS_U1_S2.tc2 =      0.0000E+00
                  X_U1.X_U1_S2.RS_U1_S2.value =      1.0000E+09
                    X_U1.X_U1_S3.RS_U1_S3.tc1 =      0.0000E+00
                    X_U1.X_U1_S3.RS_U1_S3.tc2 =      0.0000E+00
                  X_U1.X_U1_S3.RS_U1_S3.value =      1.0000E+09
                    X_U1.X_U1_S4.RS_U1_S4.tc1 =      0.0000E+00
                    X_U1.X_U1_S4.RS_U1_S4.tc2 =      0.0000E+00
                  X_U1.X_U1_S4.RS_U1_S4.value =      1.0000E+09
                        X_U1.X_U20.I_LEAK_OFF =      1.0000E-11
                        X_U1.X_U21.I_LEAK_OFF =      1.0000E-11
                        X_U1.X_U22.I_LEAK_OFF =      1.0000E-11
                        X_U1.X_U23.I_LEAK_OFF =      1.0000E-11
                        X_U1.X_U24.I_LEAK_OFF =      1.0000E-11
                        X_U1.X_U25.I_LEAK_OFF =      1.0000E-11
                        X_U1.X_U26.I_LEAK_OFF =      1.0000E-11
                        X_U1.X_U27.I_LEAK_OFF =      1.0000E-11
                           X_U1.X_U29.VCC_MAX =      5.6000E+00
                           X_U1.X_U29.VCC_MIN =      9.0000E-01
                              X_U1.X_U29.VTHR =      8.5000E-01
                    X_U1.X_U2_S1.RS_U2_S1.tc1 =      0.0000E+00
                    X_U1.X_U2_S1.RS_U2_S1.tc2 =      0.0000E+00
                  X_U1.X_U2_S1.RS_U2_S1.value =      1.0000E+09
                    X_U1.X_U2_S2.RS_U2_S2.tc1 =      0.0000E+00
                    X_U1.X_U2_S2.RS_U2_S2.tc2 =      0.0000E+00
                  X_U1.X_U2_S2.RS_U2_S2.value =      1.0000E+09
                    X_U1.X_U2_S3.RS_U2_S3.tc1 =      0.0000E+00
                    X_U1.X_U2_S3.RS_U2_S3.tc2 =      0.0000E+00
                  X_U1.X_U2_S3.RS_U2_S3.value =      1.0000E+09
                    X_U1.X_U2_S4.RS_U2_S4.tc1 =      0.0000E+00
                    X_U1.X_U2_S4.RS_U2_S4.tc2 =      0.0000E+00
                  X_U1.X_U2_S4.RS_U2_S4.value =      1.0000E+09
                    X_U1.X_U3_S1.RS_U3_S1.tc1 =      0.0000E+00
                    X_U1.X_U3_S1.RS_U3_S1.tc2 =      0.0000E+00
                  X_U1.X_U3_S1.RS_U3_S1.value =      1.0000E+09
                    X_U1.X_U3_S2.RS_U3_S2.tc1 =      0.0000E+00
                    X_U1.X_U3_S2.RS_U3_S2.tc2 =      0.0000E+00
                  X_U1.X_U3_S2.RS_U3_S2.value =      1.0000E+09
                    X_U1.X_U3_S3.RS_U3_S3.tc1 =      0.0000E+00
                    X_U1.X_U3_S3.RS_U3_S3.tc2 =      0.0000E+00
                  X_U1.X_U3_S3.RS_U3_S3.value =      1.0000E+09
                    X_U1.X_U3_S4.RS_U3_S4.tc1 =      0.0000E+00
                    X_U1.X_U3_S4.RS_U3_S4.tc2 =      0.0000E+00
                  X_U1.X_U3_S4.RS_U3_S4.value =      1.0000E+09
                    X_U1.X_U4_S1.RS_U4_S1.tc1 =      0.0000E+00
                    X_U1.X_U4_S1.RS_U4_S1.tc2 =      0.0000E+00
                  X_U1.X_U4_S1.RS_U4_S1.value =      1.0000E+09
                    X_U1.X_U4_S2.RS_U4_S2.tc1 =      0.0000E+00
                    X_U1.X_U4_S2.RS_U4_S2.tc2 =      0.0000E+00
                  X_U1.X_U4_S2.RS_U4_S2.value =      1.0000E+09
                    X_U1.X_U4_S3.RS_U4_S3.tc1 =      0.0000E+00
                    X_U1.X_U4_S3.RS_U4_S3.tc2 =      0.0000E+00
                  X_U1.X_U4_S3.RS_U4_S3.value =      1.0000E+09
                    X_U1.X_U4_S4.RS_U4_S4.tc1 =      0.0000E+00
                    X_U1.X_U4_S4.RS_U4_S4.tc2 =      0.0000E+00
                  X_U1.X_U4_S4.RS_U4_S4.value =      1.0000E+09
                    X_U1.X_U5_S1.RS_U5_S1.tc1 =      0.0000E+00
                    X_U1.X_U5_S1.RS_U5_S1.tc2 =      0.0000E+00
                  X_U1.X_U5_S1.RS_U5_S1.value =      1.0000E+09
                    X_U1.X_U5_S2.RS_U5_S2.tc1 =      0.0000E+00
                    X_U1.X_U5_S2.RS_U5_S2.tc2 =      0.0000E+00
                  X_U1.X_U5_S2.RS_U5_S2.value =      1.0000E+09
                    X_U1.X_U5_S3.RS_U5_S3.tc1 =      0.0000E+00
                    X_U1.X_U5_S3.RS_U5_S3.tc2 =      0.0000E+00
                  X_U1.X_U5_S3.RS_U5_S3.value =      1.0000E+09
                    X_U1.X_U5_S4.RS_U5_S4.tc1 =      0.0000E+00
                    X_U1.X_U5_S4.RS_U5_S4.tc2 =      0.0000E+00
                  X_U1.X_U5_S4.RS_U5_S4.value =      1.0000E+09
                    X_U1.X_U6_S1.RS_U6_S1.tc1 =      0.0000E+00
                    X_U1.X_U6_S1.RS_U6_S1.tc2 =      0.0000E+00
                  X_U1.X_U6_S1.RS_U6_S1.value =      1.0000E+09
                    X_U1.X_U6_S2.RS_U6_S2.tc1 =      0.0000E+00
                    X_U1.X_U6_S2.RS_U6_S2.tc2 =      0.0000E+00
                  X_U1.X_U6_S2.RS_U6_S2.value =      1.0000E+09
                    X_U1.X_U6_S3.RS_U6_S3.tc1 =      0.0000E+00
                    X_U1.X_U6_S3.RS_U6_S3.tc2 =      0.0000E+00
                  X_U1.X_U6_S3.RS_U6_S3.value =      1.0000E+09
                    X_U1.X_U6_S4.RS_U6_S4.tc1 =      0.0000E+00
                    X_U1.X_U6_S4.RS_U6_S4.tc2 =      0.0000E+00
                  X_U1.X_U6_S4.RS_U6_S4.value =      1.0000E+09
                    X_U1.X_U7_S1.RS_U7_S1.tc1 =      0.0000E+00
                    X_U1.X_U7_S1.RS_U7_S1.tc2 =      0.0000E+00
                  X_U1.X_U7_S1.RS_U7_S1.value =      1.0000E+09
                    X_U1.X_U7_S2.RS_U7_S2.tc1 =      0.0000E+00
                    X_U1.X_U7_S2.RS_U7_S2.tc2 =      0.0000E+00
                  X_U1.X_U7_S2.RS_U7_S2.value =      1.0000E+09
                    X_U1.X_U7_S3.RS_U7_S3.tc1 =      0.0000E+00
                    X_U1.X_U7_S3.RS_U7_S3.tc2 =      0.0000E+00
                  X_U1.X_U7_S3.RS_U7_S3.value =      1.0000E+09
                    X_U1.X_U7_S4.RS_U7_S4.tc1 =      0.0000E+00
                    X_U1.X_U7_S4.RS_U7_S4.tc2 =      0.0000E+00
                  X_U1.X_U7_S4.RS_U7_S4.value =      1.0000E+09
                    X_U1.X_U8_S1.RS_U8_S1.tc1 =      0.0000E+00
                    X_U1.X_U8_S1.RS_U8_S1.tc2 =      0.0000E+00
                  X_U1.X_U8_S1.RS_U8_S1.value =      1.0000E+09
                    X_U1.X_U8_S2.RS_U8_S2.tc1 =      0.0000E+00
                    X_U1.X_U8_S2.RS_U8_S2.tc2 =      0.0000E+00
                  X_U1.X_U8_S2.RS_U8_S2.value =      1.0000E+09
                    X_U1.X_U8_S3.RS_U8_S3.tc1 =      0.0000E+00
                    X_U1.X_U8_S3.RS_U8_S3.tc2 =      0.0000E+00
                  X_U1.X_U8_S3.RS_U8_S3.value =      1.0000E+09
                    X_U1.X_U8_S4.RS_U8_S4.tc1 =      0.0000E+00
                    X_U1.X_U8_S4.RS_U8_S4.tc2 =      0.0000E+00
                  X_U1.X_U8_S4.RS_U8_S4.value =      1.0000E+09
                                               
               

ERROR -- Convergence problem in transient analysis at Time =  535.7E-09
         Time step =  217.2E-21, minimum allowable step size =  1.000E-18

  These voltages failed to converge:

    V(X_U1.U1_NISO)           =    -2.166V  \    76.24mV
    V(X_U1.U1_N13923)         =   281.37mV  \     2.524V
    V(X_U1.U1_N12958)         =   387.19mV  \     2.629V

  These devices failed to converge:
    X_U1.X_U10_U9.EOUT 



  Last node voltages tried were:

 NODE   VOLTAGE     NODE   VOLTAGE     NODE   VOLTAGE     NODE   VOLTAGE


(    D)    2.6067  (   A0)     .8713  (   A1)     .8713  (   A2)    0.0000      

(   S1)    2.7218  (   S2)    5.6232  (   S3)    5.9749  (   S4)    5.4365      

(   S5)    4.2152  (   S6)    4.0278  (   S7)    5.4531  (   S8)    4.1933      

(N00218)    5.0000 (N00444)    5.3303 (N00621)    5.6234 (N00742)    5.9749     

(N00854)    5.4341 (N00969)    4.2179 (N01087)    4.0253 (N01208)    5.4354     

(N01332)    4.2160 (N01938)    2.0000 (X_U1.CNTRL1)    0.0000                   

(X_U1.CNTRL2)    0.0000               (X_U1.CNTRL3)    0.0000                   

(X_U1.CNTRL4)    1.0000               (X_U1.CNTRL5)    0.0000                   

(X_U1.CNTRL6)    0.0000               (X_U1.CNTRL7)    0.0000                   

(X_U1.CNTRL8)    0.0000               (X_U1.EN_INT)    1.0000                   

(X_U1.U1_NISO)   -2.1659              (X_U1.U2_NISO)     .3908                  

(X_U1.U3_NISO)     .5663              (X_U1.U4_NISO)     .2970                  

(X_U1.U5_NISO)    -.3129              (X_U1.U6_NISO)    -.4066                  

(X_U1.U7_NISO)     .3061              (X_U1.U8_NISO)    -.3237                  

(X_U1.VCC_MON)    1.0000              (X_U1.X_U29.N1)    1.0000                 

(X_U1.X_U29.N2)    1.0000             (X_U1.U10_RC_IN)    0.0000                

(X_U1.U11_RC_IN)    0.0000            (X_U1.U12_RC_IN)    0.0000                

(X_U1.U13_RC_IN)   10.0000            (X_U1.U14_RC_IN)    0.0000                

(X_U1.U15_RC_IN)    0.0000            (X_U1.U16_RC_IN)    0.0000                

(X_U1.U17_RC_IN)    0.0000            (X_U1.U1_N00735)    2.7218                

(X_U1.U1_N00768)    2.6067            (X_U1.U1_N06210)    2.7220                

(X_U1.U1_N06532)    2.6065            (X_U1.U1_N12958)     .3872                

(X_U1.U1_N13923)     .2814            (X_U1.U2_N00735)    3.7289                

(X_U1.U2_N00768)    3.7289            (X_U1.U2_N06210)    3.7289                

(X_U1.U2_N06532)    3.7289            (X_U1.U2_N12958)    5.6232                

(X_U1.U2_N13923)    2.6067            (X_U1.U3_N00735)    3.7323                

(X_U1.U3_N00768)    3.7323            (X_U1.U3_N06210)    3.7323                

(X_U1.U3_N06532)    3.7323            (X_U1.U3_N12958)    5.9749                

(X_U1.U3_N13923)    2.6067            (X_U1.U4_N00735)    3.7340                

(X_U1.U4_N00768)    3.7340            (X_U1.U4_N06210)    3.7340                

(X_U1.U4_N06532)    3.7340            (X_U1.U4_N12958)    5.4365                

(X_U1.U4_N13923)    2.6067            (X_U1.U5_N00735)    3.7255                

(X_U1.U5_N00768)    3.7255            (X_U1.U5_N06210)    3.7255                

(X_U1.U5_N06532)    3.7255            (X_U1.U5_N12958)    4.2152                

(X_U1.U5_N13923)    2.6067            (X_U1.U6_N00735)    3.7261                

(X_U1.U6_N00768)    3.7261            (X_U1.U6_N06210)    3.7261                

(X_U1.U6_N06532)    3.7261            (X_U1.U6_N12958)    4.0278                

(X_U1.U6_N13923)    2.6067            (X_U1.U7_N00735)    3.7258                

(X_U1.U7_N00768)    3.7258            (X_U1.U7_N06210)    3.7258                

(X_U1.U7_N06532)    3.7258            (X_U1.U7_N12958)    5.4531                

(X_U1.U7_N13923)    2.6067            (X_U1.U8_N00735)    3.7248                

(X_U1.U8_N00768)    3.7248            (X_U1.U8_N06210)    3.7248                

(X_U1.U8_N06532)    3.7248            (X_U1.U8_N12958)    4.1933                

(X_U1.U8_N13923)    2.6067            (X_U1.X_U29.NA0)    1.0000                

(X_U1.X_U29.NA1)    1.0000            (X_U1.X_U29.NA2)    0.0000                

(X_U1.X_U29.NEN)    1.0000            (X_U1.U10_RC_OUT)    5.0000               

(X_U1.U11_RC_OUT) 213.7E-27           (X_U1.U12_RC_OUT) 213.7E-27               

(X_U1.U13_RC_OUT)    3.1632           (X_U1.U14_RC_OUT) 213.7E-27               

(X_U1.U15_RC_OUT) 213.7E-27           (X_U1.U16_RC_OUT) 213.7E-27               

(X_U1.U17_RC_OUT) 213.7E-27           (X_U1.X_U1_U1.N1)    3.2301               

(X_U1.X_U1_U1.N2)    2.2132           (X_U1.X_U1_U1.N3)    3.1806               

(X_U1.X_U1_U1.N4)    2.2132           (X_U1.X_U2_U1.N1)    4.2049               

(X_U1.X_U2_U1.N2)    2.9044           (X_U1.X_U2_U1.N3)    2.4543               

(X_U1.X_U2_U1.N4)    2.4543           (X_U1.X_U3_U1.N1)    4.2084               

(X_U1.X_U3_U1.N2)    2.9078           (X_U1.X_U3_U1.N3)    2.4523               

(X_U1.X_U3_U1.N4)    2.4523           (X_U1.X_U4_U1.N1)    4.2102               

(X_U1.X_U4_U1.N2)    2.9095           (X_U1.X_U4_U1.N3)    2.4513               

(X_U1.X_U4_U1.N4)    2.4513           (X_U1.X_U5_U1.N1)    4.2012               

(X_U1.X_U5_U1.N2)    2.9010           (X_U1.X_U5_U1.N3)    2.4563               

(X_U1.X_U5_U1.N4)    2.4563           (X_U1.X_U6_U1.N1)    4.2019               

(X_U1.X_U6_U1.N2)    2.9016           (X_U1.X_U6_U1.N3)    2.4559               

(X_U1.X_U6_U1.N4)    2.4559           (X_U1.X_U7_U1.N1)    4.2015               

(X_U1.X_U7_U1.N2)    2.9013           (X_U1.X_U7_U1.N3)    2.4562               

(X_U1.X_U7_U1.N4)    2.4562           (X_U1.X_U8_U1.N1)    4.2004               

(X_U1.X_U8_U1.N2)    2.9003           (X_U1.X_U8_U1.N3)    2.4567               

(X_U1.X_U8_U1.N4)    2.4567           (X_U1.U10_N345775)    5.0000              

(X_U1.U10_N345841) 10.02E-12          (X_U1.U10_N349504)    4.1296              

(X_U1.U11_N345775)    5.0000          (X_U1.U11_N345841)    0.0000              

(X_U1.U11_N349504)    0.0000          (X_U1.U12_N345775)    5.0000              

(X_U1.U12_N345841)    0.0000          (X_U1.U12_N349504)    0.0000              

(X_U1.U13_N345775)    5.0000          (X_U1.U13_N345841)    4.0253              

(X_U1.U13_N349504)   10.0000          (X_U1.U14_N345775)    5.0000              

(X_U1.U14_N345841)    0.0000          (X_U1.U14_N349504)    0.0000              

(X_U1.U15_N345775)    5.0000          (X_U1.U15_N345841)    0.0000              

(X_U1.U15_N349504)    0.0000          (X_U1.U16_N345775)    5.0000              

(X_U1.U16_N345841)    0.0000          (X_U1.U16_N349504)    0.0000              

(X_U1.U17_N345775)    5.0000          (X_U1.U17_N345841)    0.0000              

(X_U1.U17_N349504)    0.0000          (X_U1.CNTRL1_DELAY)    1.0000             

(X_U1.CNTRL2_DELAY)    0.0000         (X_U1.CNTRL3_DELAY)    0.0000             

(X_U1.CNTRL4_DELAY)    0.0000         (X_U1.CNTRL5_DELAY)    0.0000             

(X_U1.CNTRL6_DELAY)    0.0000         (X_U1.CNTRL7_DELAY)    0.0000             

(X_U1.CNTRL8_DELAY)    0.0000         (X_U1.X_U1_U1.NVCC)    5.0000             

(X_U1.X_U2_U1.NVCC)    5.0000         (X_U1.X_U3_U1.NVCC)    5.0000             

(X_U1.X_U4_U1.NVCC)    5.0000         (X_U1.X_U5_U1.NVCC)    5.0000             

(X_U1.X_U6_U1.NVCC)    5.0000         (X_U1.X_U7_U1.NVCC)    5.0000             

(X_U1.X_U8_U1.NVCC)    5.0000         (X_U1.X_U1_U1.NA0_1)    1.5927            

(X_U1.X_U1_U1.NA0_2)    3.5270        (X_U1.X_U1_U1.NA0_3)    6.4755            

(X_U1.X_U1_U1.NA1_1)     .3341        (X_U1.X_U1_U1.NA1_2)   -1.3360            

(X_U1.X_U1_U1.NA1_3)   -1.5676        (X_U1.X_U1_U1.NA2_1)     .0983            

(X_U1.X_U1_U1.NA2_2)     .3135        (X_U1.X_U1_U1.NA2_3)     .1312            

(X_U1.X_U2_U1.NA0_1)    1.5927        (X_U1.X_U2_U1.NA0_2)    3.5270            

(X_U1.X_U2_U1.NA0_3)    6.4755        (X_U1.X_U2_U1.NA1_1)     .3341            

(X_U1.X_U2_U1.NA1_2)   -1.3360        (X_U1.X_U2_U1.NA1_3)   -1.5676            

(X_U1.X_U2_U1.NA2_1)     .0983        (X_U1.X_U2_U1.NA2_2)     .3135            

(X_U1.X_U2_U1.NA2_3)     .1312        (X_U1.X_U3_U1.NA0_1)    1.5927            

(X_U1.X_U3_U1.NA0_2)    3.5270        (X_U1.X_U3_U1.NA0_3)    6.4755            

(X_U1.X_U3_U1.NA1_1)     .3341        (X_U1.X_U3_U1.NA1_2)   -1.3360            

(X_U1.X_U3_U1.NA1_3)   -1.5676        (X_U1.X_U3_U1.NA2_1)     .0983            

(X_U1.X_U3_U1.NA2_2)     .3135        (X_U1.X_U3_U1.NA2_3)     .1312            

(X_U1.X_U4_U1.NA0_1)    1.5927        (X_U1.X_U4_U1.NA0_2)    3.5270            

(X_U1.X_U4_U1.NA0_3)    6.4755        (X_U1.X_U4_U1.NA1_1)     .3341            

(X_U1.X_U4_U1.NA1_2)   -1.3360        (X_U1.X_U4_U1.NA1_3)   -1.5676            

(X_U1.X_U4_U1.NA2_1)     .0983        (X_U1.X_U4_U1.NA2_2)     .3135            

(X_U1.X_U4_U1.NA2_3)     .1312        (X_U1.X_U5_U1.NA0_1)    1.5927            

(X_U1.X_U5_U1.NA0_2)    3.5270        (X_U1.X_U5_U1.NA0_3)    6.4755            

(X_U1.X_U5_U1.NA1_1)     .3341        (X_U1.X_U5_U1.NA1_2)   -1.3360            

(X_U1.X_U5_U1.NA1_3)   -1.5676        (X_U1.X_U5_U1.NA2_1)     .0983            

(X_U1.X_U5_U1.NA2_2)     .3135        (X_U1.X_U5_U1.NA2_3)     .1312            

(X_U1.X_U6_U1.NA0_1)    1.5927        (X_U1.X_U6_U1.NA0_2)    3.5270            

(X_U1.X_U6_U1.NA0_3)    6.4755        (X_U1.X_U6_U1.NA1_1)     .3341            

(X_U1.X_U6_U1.NA1_2)   -1.3360        (X_U1.X_U6_U1.NA1_3)   -1.5676            

(X_U1.X_U6_U1.NA2_1)     .0983        (X_U1.X_U6_U1.NA2_2)     .3135            

(X_U1.X_U6_U1.NA2_3)     .1312        (X_U1.X_U7_U1.NA0_1)    1.5927            

(X_U1.X_U7_U1.NA0_2)    3.5270        (X_U1.X_U7_U1.NA0_3)    6.4755            

(X_U1.X_U7_U1.NA1_1)     .3341        (X_U1.X_U7_U1.NA1_2)   -1.3360            

(X_U1.X_U7_U1.NA1_3)   -1.5676        (X_U1.X_U7_U1.NA2_1)     .0983            

(X_U1.X_U7_U1.NA2_2)     .3135        (X_U1.X_U7_U1.NA2_3)     .1312            

(X_U1.X_U8_U1.NA0_1)    1.5927        (X_U1.X_U8_U1.NA0_2)    3.5270            

(X_U1.X_U8_U1.NA0_3)    6.4755        (X_U1.X_U8_U1.NA1_1)     .3341            

(X_U1.X_U8_U1.NA1_2)   -1.3360        (X_U1.X_U8_U1.NA1_3)   -1.5676            

(X_U1.X_U8_U1.NA2_1)     .0983        (X_U1.X_U8_U1.NA2_2)     .3135            

(X_U1.X_U8_U1.NA2_3)     .1312        


**** Interrupt ****
